data/pglib_opf_case1354_pegase_nk.m
%%%%%%%%%%%%%%%%%%%%%%%%%%%%%%%%%%%%%%%%%%%%%%%%%%%%%%%%%%%%%%%%%%%%%%%%%%%
%%%%                                                                  %%%%%
%%%%    IEEE PES Power Grid Library - Optimal Power Flow - v17.08     %%%%%
%%%%          (https://github.com/power-grid-lib/pglib-opf)           %%%%%
%%%%               Benchmark Group - Typical Operations               %%%%%
%%%%                        30 - August - 2017                        %%%%%
%%%%                                                                  %%%%%
%%%%%%%%%%%%%%%%%%%%%%%%%%%%%%%%%%%%%%%%%%%%%%%%%%%%%%%%%%%%%%%%%%%%%%%%%%%
%
%CASE1354PEGASE  Power flow data for medium part of European system.
%   Please see CASEFORMAT for details on the case file format.
%
%   This case accurately represents the size and complexity of part of the
%   European high voltage transmission network. The network contains 1,354
%   buses, 260 generators, and 1,991 branches and it operates at 380 and
%   220 kV. Please note that the data are fictitious and do not correspond
%   to real world data. They can thus be used to validate methods and tools
%   but should not be used for operation and planning of the European grid.
%
%   The data stems from the Pan European Grid Advanced Simulation and State
%   Estimation (PEGASE) project, part of the 7th Framework Program of the
%   European Union (http://www.fp7-pegase.com/). When publishing results
%   based on this data, please cite:
%
%     S. Fliscounakis, P. Panciatici, F. Capitanescu, and L. Wehenkel,
%     "Contingency ranking with respect to overloads in very large power
%     systems taking into account uncertainty, preventive and corrective
%     actions", Power Systems, IEEE Trans. on, (28)4:4909-4917, 2013.
%     http://dx.doi.org/10.1109/TPWRS.2013.2251015
%
%   Remarks:
%
%   1. Line flow limits are 100 MVA (at 1 p.u. voltage) lower than the
%   current flow limits found in PEGASE data.
%
%   2. PEGASE data contains asymmetric shunt conductance and susceptance in
%   the PI transmission line model of branches. Thus total line charging
%   susceptance of branches is set to 0 p.u. and the nodal representation
%   of shunt condutance and susceptance is used. As a result, power flow
%   equations are left unchanged compared with original PEGASE data.
%   However, line flow constraints in the optimal flow problem are
%   modified.
%
%   3. Identical linear costs are used for all generators to form a loss
%   minimizing OPF objective function.
%
%   4. Since some parts of the network are aggregated, some generators
%   (e.g. with negative PMIN) represent aggregations of multiple loads
%   and generators.
%
%   Cédric Josz, Stéphane Fliscounakis, Jean Maeght, Patrick Panciatici
%   firstname.lastname@rte-france.com
%   Réseau de Transport d'Electricité (French Transmission System Operator)
%   Département Expertise Système, Immeuble "Le Colbert"
%   9 rue de la Porte de Buc, 78000 Versailles Cedex, France
%   March 18th, 2015
%
%   Copyright (c) 2015 by Cédric Josz, Stéphane Fliscounakis, Jean Maeght,
%   and Patrick Panciatici
%   Licensed under the Creative Commons Attribution 4.0 International license,
%   http://creativecommons.org/licenses/by/4.0/
%
function mpc = pglib_opf_case1354_pegase
mpc.version = '2';
mpc.baseMVA = 100.0;

%% bus data
%	bus_i	type	Pd	Qd	Gs	Bs	area	Vm	Va	baseKV	zone	Vmax	Vmin
mpc.bus = [
	3	 1	 151.0	 48.8	 0.0	 4.69	 0	    1.00000	    0.00000	 220.0	 5	    1.10000	    0.90000;
	4	 1	 171.41	 23.4	 0.0	 2.1	 0	    1.00000	    0.00000	 220.0	 5	    1.10000	    0.90000;
	10	 1	 134.0	 24.7	 0.0	 12.44	 0	    1.00000	    0.00000	 220.0	 5	    1.10000	    0.90000;
	21	 1	 161.2	 39.3	 0.0	 30.71	 0	    1.00000	    0.00000	 220.0	 5	    1.10000	    0.90000;
	22	 1	 0.0	 -0.0	 0.0	 0.85	 0	    1.00000	    0.00000	 220.0	 5	    1.10000	    0.90000;
	26	 1	 167.3	 54.8	 0.0	 110.54	 0	    1.00000	    0.00000	 380.0	 5	    1.10000	    0.90000;
	29	 1	 152.9	 49.4	 0.0	 27.65	 0	    1.00000	    0.00000	 380.0	 5	    1.10000	    0.90000;
	44	 1	 -0.0	 0.0	 0.0	 7.27	 0	    1.00000	    0.00000	 220.0	 5	    1.10000	    0.90000;
	53	 1	 48.65	 16.1	 0.0	 7.14	 0	    1.00000	    0.00000	 220.0	 5	    1.10000	    0.90000;
	58	 1	 0.0	 0.0	 0.0	 2.31	 0	    1.00000	    0.00000	 380.0	 5	    1.10000	    0.90000;
	59	 1	 119.2	 20.7	 0.0	 3.31	 0	    1.00000	    0.00000	 220.0	 5	    1.10000	    0.90000;
	90	 1	 363.25	 115.39	 0.0	 3.95	 0	    1.00000	    0.00000	 220.0	 5	    1.10000	    0.90000;
	96	 1	 -8.4	 28.66	 0.0	 3.49	 0	    1.00000	    0.00000	 220.0	 5	    1.10000	    0.90000;
	113	 1	 -0.0	 -0.0	 0.0	 6.532711	 0	    1.00000	    0.00000	 380.0	 5	    1.10000	    0.90000;
	115	 1	 0.0	 -0.0	 0.0	 4.21	 0	    1.00000	    0.00000	 220.0	 5	    1.10000	    0.90000;
	118	 1	 704.53	 -35.33	 0.0	 13.102834	 0	    1.00000	    0.00000	 380.0	 5	    1.10000	    0.90000;
	124	 2	 0.0	 0.0	 0.0	 0.0	 0	    1.00000	    0.00000	 220.0	 5	    1.10000	    0.90000;
	128	 1	 23.73	 12.7	 0.0	 0.52	 0	    1.00000	    0.00000	 220.0	 5	    1.10000	    0.90000;
	145	 1	 38.34	 5.6	 0.0	 7.64	 0	    1.00000	    0.00000	 220.0	 5	    1.10000	    0.90000;
	148	 1	 32.34	 12.0	 0.0	 6.1	 0	    1.00000	    0.00000	 220.0	 5	    1.10000	    0.90000;
	150	 2	 0.0	 0.0	 0.0	 0.0	 0	    1.00000	    0.00000	 220.0	 5	    1.10000	    0.90000;
	163	 1	 147.76	 32.73	 0.0	 8.34	 0	    1.00000	    0.00000	 220.0	 5	    1.10000	    0.90000;
	171	 1	 100.8	 13.2	 0.0	 5.24	 0	    1.00000	    0.00000	 220.0	 5	    1.10000	    0.90000;
	174	 1	 370.5	 -17.0	 0.0	 9.91	 0	    1.00000	    0.00000	 220.0	 5	    1.10000	    0.90000;
	184	 1	 -0.0	 -0.0	 0.0	 2.42	 0	    1.00000	    0.00000	 220.0	 5	    1.10000	    0.90000;
	188	 1	 36.84	 13.9	 0.0	 3.3	 0	    1.00000	    0.00000	 220.0	 5	    1.10000	    0.90000;
	195	 1	 73.14	 21.55	 0.0	 8.52	 0	    1.00000	    0.00000	 220.0	 5	    1.10000	    0.90000;
	196	 1	 0.0	 -0.0	 0.0	 12.48	 0	    1.00000	    0.00000	 220.0	 5	    1.10000	    0.90000;
	198	 1	 39.74	 11.8	 0.0	 1.44	 0	    1.00000	    0.00000	 220.0	 5	    1.10000	    0.90000;
	207	 1	 321.98	 84.4	 0.0	 1.34	 0	    1.00000	    0.00000	 220.0	 5	    1.10000	    0.90000;
	216	 1	 155.6	 54.7	 0.0	 2.21	 0	    1.00000	    0.00000	 220.0	 5	    1.10000	    0.90000;
	217	 1	 105.2	 0.1	 0.0	 7.36	 0	    1.00000	    0.00000	 220.0	 5	    1.10000	    0.90000;
	218	 1	 69.83	 15.12	 0.0	 2.23	 0	    1.00000	    0.00000	 220.0	 5	    1.10000	    0.90000;
	221	 2	 0.0	 0.0	 0.0	 0.0	 0	    1.00000	    0.00000	 380.0	 5	    1.10000	    0.90000;
	225	 1	 0.0	 0.0	 0.0	 1.15	 0	    1.00000	    0.00000	 220.0	 5	    1.10000	    0.90000;
	280	 1	 119.6	 29.6	 0.0	 5.34	 0	    1.00000	    0.00000	 220.0	 5	    1.10000	    0.90000;
	283	 1	 27.33	 11.9	 0.0	 1.17	 0	    1.00000	    0.00000	 220.0	 5	    1.10000	    0.90000;
	292	 1	 13.82	 1.4	 0.0	 0.7	 0	    1.00000	    0.00000	 220.0	 5	    1.10000	    0.90000;
	305	 1	 103.0	 12.0	 0.0	 0.63	 0	    1.00000	    0.00000	 220.0	 5	    1.10000	    0.90000;
	306	 1	 -0.0	 0.0	 0.0	 4.76	 0	    1.00000	    0.00000	 220.0	 5	    1.10000	    0.90000;
	314	 1	 163.1	 46.3	 0.0	 10.6	 0	    1.00000	    0.00000	 220.0	 5	    1.10000	    0.90000;
	333	 1	 524.5	 43.0	 0.0	 6.85	 0	    1.00000	    0.00000	 220.0	 5	    1.10000	    0.90000;
	338	 2	 0.0	 0.0	 0.0	 0.0	 0	    1.00000	    0.00000	 220.0	 5	    1.10000	    0.90000;
	346	 1	 197.5	 48.3	 0.0	 0.71	 0	    1.00000	    0.00000	 220.0	 5	    1.10000	    0.90000;
	350	 1	 110.4	 26.2	 0.0	 5.62	 0	    1.00000	    0.00000	 220.0	 5	    1.10000	    0.90000;
	352	 2	 0.0	 0.0	 0.0	 0.0	 0	    1.00000	    0.00000	 380.0	 5	    1.10000	    0.90000;
	367	 1	 65.17	 -51.5	 0.0	 4.85	 0	    1.00000	    0.00000	 220.0	 5	    1.10000	    0.90000;
	401	 1	 56.5	 36.29	 0.0	 3.08	 0	    1.00000	    0.00000	 220.0	 5	    1.10000	    0.90000;
	408	 1	 129.1	 7.4	 0.0	 0.04	 0	    1.00000	    0.00000	 220.0	 5	    1.10000	    0.90000;
	410	 1	 170.89	 50.38	 0.0	 6.44	 0	    1.00000	    0.00000	 220.0	 5	    1.10000	    0.90000;
	413	 2	 0.0	 0.0	 0.0	 0.0	 0	    1.00000	    0.00000	 220.0	 5	    1.10000	    0.90000;
	416	 1	 70.68	 13.5	 0.0	 6.96	 0	    1.00000	    0.00000	 220.0	 5	    1.10000	    0.90000;
	426	 1	 123.1	 6.5	 0.0	 3.25	 0	    1.00000	    0.00000	 220.0	 5	    1.10000	    0.90000;
	432	 1	 -0.0	 -0.0	 0.0	 68.517663	 0	    1.00000	    0.00000	 380.0	 5	    1.10000	    0.90000;
	444	 1	 0.0	 -0.0	 0.0	 2.45	 0	    1.00000	    0.00000	 220.0	 5	    1.10000	    0.90000;
	449	 1	 0.0	 0.0	 0.0	 29.42	 0	    1.00000	    0.00000	 380.0	 5	    1.10000	    0.90000;
	453	 2	 0.0	 0.0	 0.0	 0.0	 0	    1.00000	    0.00000	 380.0	 5	    1.10000	    0.90000;
	455	 1	 274.32	 5.66	 0.0	 13.24	 0	    1.00000	    0.00000	 220.0	 5	    1.10000	    0.90000;
	490	 1	 20.52	 4.0	 0.0	 2.77	 0	    1.00000	    0.00000	 220.0	 5	    1.10000	    0.90000;
	500	 1	 144.4	 35.5	 0.0	 7.66	 0	    1.00000	    0.00000	 220.0	 5	    1.10000	    0.90000;
	502	 1	 -0.0	 0.0	 0.0	 1.96	 0	    1.00000	    0.00000	 220.0	 5	    1.10000	    0.90000;
	506	 1	 -0.0	 0.0	 0.0	 0.4	 0	    1.00000	    0.00000	 380.0	 5	    1.10000	    0.90000;
	513	 1	 57.46	 17.1	 0.0	 1.61	 0	    1.00000	    0.00000	 220.0	 5	    1.10000	    0.90000;
	516	 2	 0.0	 0.0	 0.0	 0.0	 0	    1.00000	    0.00000	 220.0	 5	    1.10000	    0.90000;
	520	 1	 118.5	 20.4	 0.0	 2.57	 0	    1.00000	    0.00000	 220.0	 5	    1.10000	    0.90000;
	549	 1	 0.0	 -0.0	 0.0	 5.15	 0	    1.00000	    0.00000	 220.0	 5	    1.10000	    0.90000;
	554	 1	 0.0	 -0.0	 0.0	 1.97	 0	    1.00000	    0.00000	 220.0	 5	    1.10000	    0.90000;
	556	 1	 16.52	 9.0	 0.0	 1.17	 0	    1.00000	    0.00000	 220.0	 5	    1.10000	    0.90000;
	561	 1	 0.0	 -0.0	 0.0	 0.32	 0	    1.00000	    0.00000	 220.0	 5	    1.10000	    0.90000;
	564	 2	 0.0	 0.0	 0.0	 0.0	 0	    1.00000	    0.00000	 220.0	 5	    1.10000	    0.90000;
	575	 1	 0.0	 -0.0	 0.0	 0.67	 0	    1.00000	    0.00000	 220.0	 5	    1.10000	    0.90000;
	583	 2	 0.0	 0.0	 0.0	 0.0	 0	    1.00000	    0.00000	 220.0	 5	    1.10000	    0.90000;
	594	 1	 67.57	 17.0	 0.0	 5.75	 0	    1.00000	    0.00000	 220.0	 5	    1.10000	    0.90000;
	601	 1	 140.6	 42.6	 0.0	 5.71	 0	    1.00000	    0.00000	 220.0	 5	    1.10000	    0.90000;
	604	 1	 33.24	 4.4	 0.0	 24.54	 0	    1.00000	    0.00000	 380.0	 5	    1.10000	    0.90000;
	608	 1	 150.9	 10.4	 0.0	 4.77	 0	    1.00000	    0.00000	 220.0	 5	    1.10000	    0.90000;
	609	 1	 -0.0	 -0.0	 0.0	 5.67	 0	    1.00000	    0.00000	 220.0	 5	    1.10000	    0.90000;
	615	 2	 0.0	 0.0	 0.0	 0.0	 0	    1.00000	    0.00000	 220.0	 5	    1.10000	    0.90000;
	616	 2	 0.0	 0.0	 0.0	 0.0	 0	    1.00000	    0.00000	 220.0	 5	    1.10000	    0.90000;
	619	 1	 72.88	 14.4	 0.0	 2.96	 0	    1.00000	    0.00000	 220.0	 5	    1.10000	    0.90000;
	639	 2	 0.0	 0.0	 0.0	 0.0	 0	    1.00000	    0.00000	 220.0	 5	    1.10000	    0.90000;
	641	 1	 45.32	 18.5	 0.0	 0.74	 0	    1.00000	    0.00000	 220.0	 5	    1.10000	    0.90000;
	658	 1	 258.4	 66.7	 0.0	 5.87	 0	    1.00000	    0.00000	 220.0	 5	    1.10000	    0.90000;
	661	 1	 -0.0	 -0.0	 0.0	 0.6	 0	    1.00000	    0.00000	 380.0	 5	    1.10000	    0.90000;
	666	 1	 -5.61	 -2.79	 0.0	 150.93	 0	    1.00000	    0.00000	 380.0	 5	    1.10000	    0.90000;
	678	 1	 232.1	 89.8	 0.0	 0.09	 0	    1.00000	    0.00000	 220.0	 5	    1.10000	    0.90000;
	682	 2	 0.0	 0.0	 0.0	 0.0	 0	    1.00000	    0.00000	 220.0	 5	    1.10000	    0.90000;
	687	 1	 -0.0	 0.0	 0.0	 5.6	 0	    1.00000	    0.00000	 220.0	 5	    1.10000	    0.90000;
	707	 1	 83.99	 21.2	 0.0	 5.36	 0	    1.00000	    0.00000	 220.0	 5	    1.10000	    0.90000;
	718	 1	 135.11	 41.0	 0.0	 5.31	 0	    1.00000	    0.00000	 220.0	 5	    1.10000	    0.90000;
	720	 1	 -0.0	 -0.0	 0.0	 23.554121	 0	    1.00000	    0.00000	 380.0	 5	    1.10000	    0.90000;
	726	 1	 400.3	 189.9	 0.0	 0.53	 0	    1.00000	    0.00000	 220.0	 5	    1.10000	    0.90000;
	742	 1	 0.0	 -0.0	 0.0	 2.83	 0	    1.00000	    0.00000	 220.0	 5	    1.10000	    0.90000;
	747	 1	 69.58	 16.0	 0.0	 3.03	 0	    1.00000	    0.00000	 220.0	 5	    1.10000	    0.90000;
	749	 2	 0.0	 0.0	 0.0	 0.0	 0	    1.00000	    0.00000	 220.0	 5	    1.10000	    0.90000;
	750	 1	 -0.0	 -0.0	 0.0	 18.63	 0	    1.00000	    0.00000	 220.0	 5	    1.10000	    0.90000;
	757	 2	 0.0	 0.0	 0.0	 0.0	 0	    1.00000	    0.00000	 380.0	 5	    1.10000	    0.90000;
	766	 1	 -0.0	 0.0	 0.0	 7.85	 0	    1.00000	    0.00000	 220.0	 5	    1.10000	    0.90000;
	769	 1	 152.57	 40.0	 0.0	 6.12	 0	    1.00000	    0.00000	 220.0	 5	    1.10000	    0.90000;
	772	 1	 343.9	 141.9	 0.0	 5.55	 0	    1.00000	    0.00000	 220.0	 5	    1.10000	    0.90000;
	776	 2	 0.0	 0.0	 0.0	 0.0	 0	    1.00000	    0.00000	 220.0	 5	    1.10000	    0.90000;
	778	 2	 0.0	 0.0	 0.0	 0.0	 0	    1.00000	    0.00000	 220.0	 5	    1.10000	    0.90000;
	789	 1	 -0.0	 -0.0	 0.0	 6.63	 0	    1.00000	    0.00000	 220.0	 5	    1.10000	    0.90000;
	795	 2	 0.0	 0.0	 0.0	 0.0	 0	    1.00000	    0.00000	 220.0	 5	    1.10000	    0.90000;
	800	 1	 50.56	 18.0	 0.0	 0.11	 0	    1.00000	    0.00000	 220.0	 5	    1.10000	    0.90000;
	803	 2	 0.0	 0.0	 0.0	 0.0	 0	    1.00000	    0.00000	 220.0	 5	    1.10000	    0.90000;
	804	 1	 -0.0	 -0.0	 0.0	 7.26	 0	    1.00000	    0.00000	 220.0	 5	    1.10000	    0.90000;
	805	 1	 124.5	 29.6	 0.0	 15.4	 0	    1.00000	    0.00000	 220.0	 5	    1.10000	    0.90000;
	809	 1	 0.0	 -0.0	 0.0	 58.088687	 0	    1.00000	    0.00000	 380.0	 5	    1.10000	    0.90000;
	819	 1	 0.0	 -0.0	 0.0	 0.22	 0	    1.00000	    0.00000	 220.0	 5	    1.10000	    0.90000;
	823	 2	 0.0	 0.0	 0.0	 0.0	 0	    1.00000	    0.00000	 380.0	 5	    1.10000	    0.90000;
	839	 1	 -0.0	 -0.0	 0.0	 8.17514	 0	    1.00000	    0.00000	 380.0	 5	    1.10000	    0.90000;
	851	 2	 0.0	 0.0	 0.0	 0.0	 0	    1.00000	    0.00000	 220.0	 5	    1.10000	    0.90000;
	858	 2	 0.0	 0.0	 0.0	 0.0	 0	    1.00000	    0.00000	 380.0	 5	    1.10000	    0.90000;
	870	 1	 110.0	 3.4	 0.0	 11.95	 0	    1.00000	    0.00000	 220.0	 5	    1.10000	    0.90000;
	871	 1	 108.89	 -21.76	 0.0	 3.72	 0	    1.00000	    0.00000	 220.0	 5	    1.10000	    0.90000;
	883	 1	 192.5	 78.3	 0.0	 6.65	 0	    1.00000	    0.00000	 220.0	 5	    1.10000	    0.90000;
	891	 2	 0.0	 0.0	 0.0	 0.0	 0	    1.00000	    0.00000	 380.0	 5	    1.10000	    0.90000;
	892	 1	 -0.0	 -0.0	 0.0	 9.1	 0	    1.00000	    0.00000	 220.0	 5	    1.10000	    0.90000;
	900	 1	 0.0	 0.0	 0.0	 0.15	 0	    1.00000	    0.00000	 220.0	 5	    1.10000	    0.90000;
	903	 1	 82.69	 20.1	 0.0	 1.36	 0	    1.00000	    0.00000	 220.0	 5	    1.10000	    0.90000;
	905	 1	 631.71	 -54.16	 0.0	 7.534129	 0	    1.00000	    0.00000	 380.0	 5	    1.10000	    0.90000;
	907	 1	 -0.0	 -0.0	 0.0	 0.05	 0	    1.00000	    0.00000	 220.0	 5	    1.10000	    0.90000;
	908	 1	 125.9	 -0.5	 0.0	 0.21	 0	    1.00000	    0.00000	 220.0	 5	    1.10000	    0.90000;
	920	 1	 34.44	 8.5	 0.0	 1.11	 0	    1.00000	    0.00000	 220.0	 5	    1.10000	    0.90000;
	923	 1	 62.07	 14.7	 0.0	 4.84	 0	    1.00000	    0.00000	 220.0	 5	    1.10000	    0.90000;
	933	 1	 -0.0	 0.0	 0.0	 22.75	 0	    1.00000	    0.00000	 220.0	 5	    1.10000	    0.90000;
	935	 1	 -0.0	 0.0	 0.0	 9.46	 0	    1.00000	    0.00000	 220.0	 5	    1.10000	    0.90000;
	953	 1	 108.7	 -12.15	 0.0	 37.11	 0	    1.00000	    0.00000	 380.0	 5	    1.10000	    0.90000;
	954	 1	 66.27	 13.6	 0.0	 0.67	 0	    1.00000	    0.00000	 220.0	 5	    1.10000	    0.90000;
	960	 1	 -0.0	 -0.0	 0.0	 108.728602	 0	    1.00000	    0.00000	 380.0	 5	    1.10000	    0.90000;
	964	 1	 88.5	 16.5	 0.0	 146.44	 0	    1.00000	    0.00000	 380.0	 5	    1.10000	    0.90000;
	972	 2	 0.0	 0.0	 0.0	 0.0	 0	    1.00000	    0.00000	 380.0	 5	    1.30000	    0.70000;
	980	 1	 14.71	 4.6	 0.0	 7.88	 0	    1.00000	    0.00000	 220.0	 5	    1.10000	    0.90000;
	1001	 2	 0.0	 0.0	 0.0	 0.0	 0	    1.00000	    0.00000	 220.0	 5	    1.10000	    0.90000;
	1002	 2	 0.0	 0.0	 0.0	 0.0	 0	    1.00000	    0.00000	 220.0	 5	    1.10000	    0.90000;
	1005	 1	 0.0	 0.0	 0.0	 0.81	 0	    1.00000	    0.00000	 220.0	 5	    1.10000	    0.90000;
	1015	 1	 44.55	 0.0	 0.0	 4.78	 0	    1.00000	    0.00000	 220.0	 5	    1.10000	    0.90000;
	1026	 1	 201.4	 53.0	 0.0	 9.67	 0	    1.00000	    0.00000	 220.0	 5	    1.10000	    0.90000;
	1027	 1	 -5.91	 -2.33	 0.0	 30.393595	 0	    1.00000	    0.00000	 380.0	 5	    1.10000	    0.90000;
	1033	 1	 26.33	 5.3	 0.0	 4.31	 0	    1.00000	    0.00000	 220.0	 5	    1.10000	    0.90000;
	1035	 1	 382.5	 57.9	 0.0	 8.16	 0	    1.00000	    0.00000	 220.0	 5	    1.10000	    0.90000;
	1039	 1	 34.64	 -0.0	 0.0	 0.91	 0	    1.00000	    0.00000	 220.0	 5	    1.10000	    0.90000;
	1040	 1	 31.94	 8.8	 0.0	 3.79	 0	    1.00000	    0.00000	 220.0	 5	    1.10000	    0.90000;
	1043	 2	 0.0	 0.0	 0.0	 0.0	 0	    1.00000	    0.00000	 380.0	 5	    1.10000	    0.90000;
	1051	 1	 -0.0	 0.0	 0.0	 3.79	 0	    1.00000	    0.00000	 220.0	 5	    1.10000	    0.90000;
	1077	 1	 -0.0	 0.0	 0.0	 0.1	 0	    1.00000	    0.00000	 220.0	 5	    1.10000	    0.90000;
	1078	 1	 -0.0	 -0.0	 0.0	 4.74	 0	    1.00000	    0.00000	 220.0	 5	    1.10000	    0.90000;
	1081	 1	 277.86	 58.95	 0.0	 182.880644	 0	    1.00000	    0.00000	 380.0	 5	    1.10000	    0.90000;
	1083	 2	 0.0	 0.0	 0.0	 0.0	 0	    1.00000	    0.00000	 220.0	 5	    1.10000	    0.90000;
	1090	 1	 56.06	 18.7	 0.0	 4.24	 0	    1.00000	    0.00000	 220.0	 5	    1.10000	    0.90000;
	1093	 2	 0.0	 0.0	 0.0	 0.0	 0	    1.00000	    0.00000	 380.0	 5	    1.10000	    0.90000;
	1096	 1	 0.0	 -0.0	 0.0	 0.16	 0	    1.00000	    0.00000	 220.0	 5	    1.10000	    0.90000;
	1100	 2	 0.0	 0.0	 0.0	 0.0	 0	    1.00000	    0.00000	 220.0	 5	    1.10000	    0.90000;
	1101	 1	 -0.0	 -0.0	 0.0	 2.05	 0	    1.00000	    0.00000	 220.0	 5	    1.10000	    0.90000;
	1102	 2	 0.0	 0.0	 0.0	 0.0	 0	    1.00000	    0.00000	 220.0	 5	    1.10000	    0.90000;
	1105	 1	 29.83	 7.3	 0.0	 6.49	 0	    1.00000	    0.00000	 220.0	 5	    1.10000	    0.90000;
	1111	 1	 0.0	 0.0	 0.0	 1.1	 0	    1.00000	    0.00000	 220.0	 5	    1.10000	    0.90000;
	1129	 1	 190.47	 55.03	 0.0	 6.7	 0	    1.00000	    0.00000	 220.0	 5	    1.10000	    0.90000;
	1136	 1	 16.22	 2.0	 0.0	 0.71	 0	    1.00000	    0.00000	 220.0	 5	    1.10000	    0.90000;
	1137	 1	 -0.0	 -0.0	 0.0	 0.05	 0	    1.00000	    0.00000	 220.0	 5	    1.10000	    0.90000;
	1146	 1	 32.84	 -0.0	 0.0	 1.41	 0	    1.00000	    0.00000	 220.0	 5	    1.10000	    0.90000;
	1151	 1	 -0.0	 -0.0	 0.0	 18.82	 0	    1.00000	    0.00000	 220.0	 5	    1.10000	    0.90000;
	1153	 1	 12.41	 3.9	 0.0	 2.23	 0	    1.00000	    0.00000	 220.0	 5	    1.10000	    0.90000;
	1156	 1	 65.67	 24.0	 0.0	 9.95	 0	    1.00000	    0.00000	 220.0	 5	    1.10000	    0.90000;
	1159	 1	 112.4	 13.0	 0.0	 3.99	 0	    1.00000	    0.00000	 220.0	 5	    1.10000	    0.90000;
	1172	 1	 -0.0	 -0.0	 0.0	 2.3	 0	    1.00000	    0.00000	 220.0	 5	    1.10000	    0.90000;
	1179	 1	 86.6	 23.4	 0.0	 0.39	 0	    1.00000	    0.00000	 220.0	 5	    1.10000	    0.90000;
	1183	 1	 199.4	 -19.9	 0.0	 6.68	 0	    1.00000	    0.00000	 220.0	 5	    1.10000	    0.90000;
	1187	 1	 67.57	 21.2	 0.0	 5.71	 0	    1.00000	    0.00000	 220.0	 5	    1.10000	    0.90000;
	1188	 1	 30.93	 6.6	 0.0	 9.09	 0	    1.00000	    0.00000	 220.0	 5	    1.10000	    0.90000;
	1194	 1	 129.6	 13.3	 0.0	 13.98	 0	    1.00000	    0.00000	 380.0	 5	    1.10000	    0.90000;
	1198	 1	 0.0	 0.0	 0.0	 30.637696	 0	    1.00000	    0.00000	 380.0	 5	    1.10000	    0.90000;
	1201	 1	 114.1	 23.5	 0.0	 1.08	 0	    1.00000	    0.00000	 220.0	 5	    1.10000	    0.90000;
	1216	 1	 0.0	 0.0	 0.0	 4.93	 0	    1.00000	    0.00000	 220.0	 5	    1.10000	    0.90000;
	1233	 1	 0.0	 -0.0	 0.0	 1.72	 0	    1.00000	    0.00000	 220.0	 5	    1.10000	    0.90000;
	1234	 1	 71.78	 17.9	 0.0	 1.96	 0	    1.00000	    0.00000	 220.0	 5	    1.10000	    0.90000;
	1237	 2	 0.0	 0.0	 0.0	 0.0	 0	    1.00000	    0.00000	 380.0	 5	    1.30000	    0.70000;
	1248	 1	 0.0	 0.0	 0.0	 1.17	 0	    1.00000	    0.00000	 220.0	 5	    1.10000	    0.90000;
	1249	 1	 348.93	 26.47	 0.0	 9.36	 0	    1.00000	    0.00000	 380.0	 5	    1.10000	    0.90000;
	1251	 2	 0.0	 0.0	 0.0	 0.0	 0	    1.00000	    0.00000	 380.0	 5	    1.10000	    0.90000;
	1262	 1	 -0.0	 0.0	 0.0	 10.73	 0	    1.00000	    0.00000	 220.0	 5	    1.10000	    0.90000;
	1265	 1	 173.0	 -21.3	 0.0	 5.93	 0	    1.00000	    0.00000	 220.0	 5	    1.10000	    0.90000;
	1275	 1	 52.46	 2.9	 0.0	 0.35	 0	    1.00000	    0.00000	 220.0	 5	    1.10000	    0.90000;
	1295	 2	 0.0	 0.0	 0.0	 0.0	 0	    1.00000	    0.00000	 220.0	 5	    1.10000	    0.90000;
	1301	 1	 479.0	 99.2	 0.0	 10.68	 0	    1.00000	    0.00000	 220.0	 5	    1.10000	    0.90000;
	1305	 1	 -0.0	 -0.0	 0.0	 4.34	 0	    1.00000	    0.00000	 220.0	 5	    1.10000	    0.90000;
	1311	 1	 37.94	 15.2	 0.0	 35.31	 0	    1.00000	    0.00000	 380.0	 5	    1.10000	    0.90000;
	1326	 1	 0.0	 0.0	 0.0	 0.98	 0	    1.00000	    0.00000	 220.0	 5	    1.10000	    0.90000;
	1334	 1	 0.0	 0.0	 0.0	 0.59	 0	    1.00000	    0.00000	 220.0	 5	    1.10000	    0.90000;
	1341	 2	 0.0	 0.0	 0.0	 0.0	 0	    1.00000	    0.00000	 220.0	 5	    1.10000	    0.90000;
	1343	 1	 -0.0	 -0.0	 0.0	 58.3	 0	    1.00000	    0.00000	 380.0	 5	    1.10000	    0.90000;
	1354	 2	 0.0	 0.0	 0.0	 0.0	 0	    1.00000	    0.00000	 220.0	 5	    1.10000	    0.90000;
	1355	 1	 -3.29	 -1.32	 0.0	 190.704588	 0	    1.00000	    0.00000	 380.0	 5	    1.10000	    0.90000;
	1364	 1	 40.85	 14.5	 0.0	 0.59	 0	    1.00000	    0.00000	 220.0	 5	    1.10000	    0.90000;
	1380	 1	 145.2	 21.4	 0.0	 1.09	 0	    1.00000	    0.00000	 220.0	 5	    1.10000	    0.90000;
	1394	 1	 30.93	 7.6	 0.0	 4.69	 0	    1.00000	    0.00000	 220.0	 5	    1.10000	    0.90000;
	1397	 1	 0.0	 -0.0	 0.0	 2.14	 0	    1.00000	    0.00000	 220.0	 5	    1.10000	    0.90000;
	1398	 1	 196.7	 44.2	 0.0	 0.1	 0	    1.00000	    0.00000	 220.0	 5	    1.10000	    0.90000;
	1401	 1	 11.91	 2.9	 0.0	 5.27	 0	    1.00000	    0.00000	 220.0	 5	    1.10000	    0.90000;
...
];

%% generator data
%	bus	Pg	Qg	Qmax	Qmin	Vg	mBase	status	Pmax	Pmin	Pc1	Pc2	Qc1min	Qc1max	Qc2min	Qc2max	ramp_agc	ramp_10	ramp_30	ramp_q	apf
mpc.gen = [
	124	 666.665	 133.865	 440.32	 -172.59	 1.081537	 100.0	 1	 1000.0	 333.33	 0.0	 0.0	 0.0	 0.0	 0.0	 0.0	 0.0	 0.0	 0.0	 0.0	 0.0; % COW
	150	 80.0	 27.275	 77.09	 -22.54	 1.062805	 100.0	 1	 160.0	 0.0	 0.0	 0.0	 0.0	 0.0	 0.0	 0.0	 0.0	 0.0	 0.0	 0.0	 0.0; % NG
	221	 -53.59	 59.31	 183.92	 -65.3	 0.984682	 100.0	 1	 100.0	 -207.18	 0.0	 0.0	 0.0	 0.0	 0.0	 0.0	 0.0	 0.0	 0.0	 0.0	 0.0; % COW
	338	 60.0	 18.19	 55.54	 -19.16	 1.048249	 100.0	 1	 120.0	 0.0	 0.0	 0.0	 0.0	 0.0	 0.0	 0.0	 0.0	 0.0	 0.0	 0.0	 0.0; % NG
	352	 1333.335	 314.335	 926.35	 -297.68	 1.055378	 100.0	 1	 2000.0	 666.67	 0.0	 0.0	 0.0	 0.0	 0.0	 0.0	 0.0	 0.0	 0.0	 0.0	 0.0; % COW
	413	 140.0	 37.14	 124.12	 -49.84	 1.05013	 100.0	 1	 280.0	 0.0	 0.0	 0.0	 0.0	 0.0	 0.0	 0.0	 0.0	 0.0	 0.0	 0.0	 0.0; % NG
	453	 270.0	 91.415	 257.23	 -74.4	 1.018914	 100.0	 1	 540.0	 0.0	 0.0	 0.0	 0.0	 0.0	 0.0	 0.0	 0.0	 0.0	 0.0	 0.0	 0.0; % NG
	516	 400.0	 77.56	 261.79	 -106.67	 1.075592	 100.0	 1	 600.0	 200.0	 0.0	 0.0	 0.0	 0.0	 0.0	 0.0	 0.0	 0.0	 0.0	 0.0	 0.0; % NUC
	564	 15.555	 -0.44	 18.47	 -19.35	 1.069817	 100.0	 1	 100.0	 -68.89	 0.0	 0.0	 0.0	 0.0	 0.0	 0.0	 0.0	 0.0	 0.0	 0.0	 0.0; % COW
	583	 -130.0	 5.425	 17.88	 -7.03	 1.045397	 100.0	 1	 100.0	 -360.0	 0.0	 0.0	 0.0	 0.0	 0.0	 0.0	 0.0	 0.0	 0.0	 0.0	 0.0; % NG
	615	 20.0	 4.65	 17.09	 -7.79	 1.063876	 100.0	 1	 40.0	 0.0	 0.0	 0.0	 0.0	 0.0	 0.0	 0.0	 0.0	 0.0	 0.0	 0.0	 0.0; % NG
	616	 320.0	 68.37	 217.9	 -81.16	 1.048713	 100.0	 1	 480.0	 160.0	 0.0	 0.0	 0.0	 0.0	 0.0	 0.0	 0.0	 0.0	 0.0	 0.0	 0.0; % NG
	639	 19.2	 48.31	 135.52	 -38.9	 1.051376	 100.0	 1	 100.0	 -61.6	 0.0	 0.0	 0.0	 0.0	 0.0	 0.0	 0.0	 0.0	 0.0	 0.0	 0.0; % NG
	682	 40.0	 13.855	 38.77	 -11.06	 1.0691	 100.0	 1	 80.0	 0.0	 0.0	 0.0	 0.0	 0.0	 0.0	 0.0	 0.0	 0.0	 0.0	 0.0	 0.0; % NG
	749	 120.0	 30.925	 105.69	 -43.84	 1.057884	 100.0	 1	 240.0	 0.0	 0.0	 0.0	 0.0	 0.0	 0.0	 0.0	 0.0	 0.0	 0.0	 0.0	 0.0; % COW
	757	 60.0	 13.945	 51.3	 -23.41	 1.017567	 100.0	 1	 120.0	 0.0	 0.0	 0.0	 0.0	 0.0	 0.0	 0.0	 0.0	 0.0	 0.0	 0.0	 0.0; % NG
	776	 -24.265	 5.715	 18.16	 -6.73	 1.026368	 100.0	 1	 100.0	 -148.53	 0.0	 0.0	 0.0	 0.0	 0.0	 0.0	 0.0	 0.0	 0.0	 0.0	 0.0; % NG
	778	 16.79	 1.505	 12.37	 -9.36	 1.049411	 100.0	 1	 33.58	 0.0	 0.0	 0.0	 0.0	 0.0	 0.0	 0.0	 0.0	 0.0	 0.0	 0.0	 0.0; % NG
	795	 40.0	 11.855	 36.75	 -13.04	 1.035522	 100.0	 1	 80.0	 0.0	 0.0	 0.0	 0.0	 0.0	 0.0	 0.0	 0.0	 0.0	 0.0	 0.0	 0.0; % NG
	803	 -9.465	 24.245	 74.03	 -25.54	 1.041369	 100.0	 1	 100.0	 -118.93	 0.0	 0.0	 0.0	 0.0	 0.0	 0.0	 0.0	 0.0	 0.0	 0.0	 0.0; % COW
	823	 1333.335	 314.185	 926.68	 -298.31	 1.044097	 100.0	 1	 2000.0	 666.67	 0.0	 0.0	 0.0	 0.0	 0.0	 0.0	 0.0	 0.0	 0.0	 0.0	 0.0; % COW
	851	 100.0	 34.415	 96.64	 -27.81	 1.00025	 100.0	 1	 200.0	 0.0	 0.0	 0.0	 0.0	 0.0	 0.0	 0.0	 0.0	 0.0	 0.0	 0.0	 0.0; % COW
	858	 666.665	 134.26	 440.67	 -172.15	 1.031745	 100.0	 1	 1000.0	 333.33	 0.0	 0.0	 0.0	 0.0	 0.0	 0.0	 0.0	 0.0	 0.0	 0.0	 0.0; % COW
	891	 1600.0	 361.75	 1097.41	 -373.91	 1.064525	 100.0	 1	 2400.0	 800.0	 0.0	 0.0	 0.0	 0.0	 0.0	 0.0	 0.0	 0.0	 0.0	 0.0	 0.0; % COW
	972	 1333.335	 321.605	 934.73	 -291.52	 1.072621	 100.0	 1	 2000.0	 666.67	 0.0	 0.0	 0.0	 0.0	 0.0	 0.0	 0.0	 0.0	 0.0	 0.0	 0.0; % COW
	1001	 60.0	 17.605	 55.02	 -19.81	 1.074143	 100.0	 1	 120.0	 0.0	 0.0	 0.0	 0.0	 0.0	 0.0	 0.0	 0.0	 0.0	 0.0	 0.0	 0.0; % NG
	1002	 100.0	 27.2	 89.55	 -35.15	 1.041506	 100.0	 1	 200.0	 0.0	 0.0	 0.0	 0.0	 0.0	 0.0	 0.0	 0.0	 0.0	 0.0	 0.0	 0.0; % NG
	1043	 600.0	 112.24	 387.88	 -163.4	 1.028946	 100.0	 1	 900.0	 300.0	 0.0	 0.0	 0.0	 0.0	 0.0	 0.0	 0.0	 0.0	 0.0	 0.0	 0.0; % NG
	1083	 60.0	 17.515	 54.91	 -19.88	 1.049472	 100.0	 1	 120.0	 0.0	 0.0	 0.0	 0.0	 0.0	 0.0	 0.0	 0.0	 0.0	 0.0	 0.0	 0.0; % NG
	1093	 800.0	 182.77	 550.69	 -185.15	 1.027056	 100.0	 1	 1200.0	 400.0	 0.0	 0.0	 0.0	 0.0	 0.0	 0.0	 0.0	 0.0	 0.0	 0.0	 0.0; % COW
	1100	 40.0	 11.895	 36.8	 -13.01	 1.042801	 100.0	 1	 80.0	 0.0	 0.0	 0.0	 0.0	 0.0	 0.0	 0.0	 0.0	 0.0	 0.0	 0.0	 0.0; % NG
	1102	 -32.77	 13.23	 38.05	 -11.59	 1.049879	 100.0	 1	 100.0	 -165.54	 0.0	 0.0	 0.0	 0.0	 0.0	 0.0	 0.0	 0.0	 0.0	 0.0	 0.0; % NG
	1237	 1333.335	 293.585	 906.61	 -319.44	 1.108028	 100.0	 1	 2000.0	 666.67	 0.0	 0.0	 0.0	 0.0	 0.0	 0.0	 0.0	 0.0	 0.0	 0.0	 0.0; % COW
	1251	 800.0	 182.77	 550.69	 -185.15	 1.027102	 100.0	 1	 1200.0	 400.0	 0.0	 0.0	 0.0	 0.0	 0.0	 0.0	 0.0	 0.0	 0.0	 0.0	 0.0; % COW
	1295	 -32.735	 12.02	 36.92	 -12.88	 1.03682	 100.0	 1	 100.0	 -165.47	 0.0	 0.0	 0.0	 0.0	 0.0	 0.0	 0.0	 0.0	 0.0	 0.0	 0.0; % NG
	1341	 60.0	 19.705	 57.03	 -17.62	 1.032899	 100.0	 1	 120.0	 0.0	 0.0	 0.0	 0.0	 0.0	 0.0	 0.0	 0.0	 0.0	 0.0	 0.0	 0.0; % NG
	1354	 -114.335	 13.175	 38.08	 -11.73	 1.041045	 100.0	 1	 100.0	 -328.67	 0.0	 0.0	 0.0	 0.0	 0.0	 0.0	 0.0	 0.0	 0.0	 0.0	 0.0; % NG
	1422	 -17.335	 5.65	 18.09	 -6.79	 1.04353	 100.0	 1	 100.0	 -134.67	 0.0	 0.0	 0.0	 0.0	 0.0	 0.0	 0.0	 0.0	 0.0	 0.0	 0.0; % NG
	1436	 40.0	 12.815	 37.72	 -12.09	 1.047684	 100.0	 1	 80.0	 0.0	 0.0	 0.0	 0.0	 0.0	 0.0	 0.0	 0.0	 0.0	 0.0	 0.0	 0.0; % NG
	1478	 40.0	 11.48	 36.4	 -13.44	 1.048068	 100.0	 1	 80.0	 0.0	 0.0	 0.0	 0.0	 0.0	 0.0	 0.0	 0.0	 0.0	 0.0	 0.0	 0.0; % NG
	1604	 40.0	 12.745	 37.66	 -12.17	 1.043862	 100.0	 1	 80.0	 0.0	 0.0	 0.0	 0.0	 0.0	 0.0	 0.0	 0.0	 0.0	 0.0	 0.0	 0.0; % NG
	1642	 40.0	 12.815	 37.74	 -12.11	 1.028554	 100.0	 1	 80.0	 0.0	 0.0	 0.0	 0.0	 0.0	 0.0	 0.0	 0.0	 0.0	 0.0	 0.0	 0.0; % NG
	1680	 1333.335	 316.395	 928.89	 -296.1	 1.04395	 100.0	 1	 2000.0	 666.67	 0.0	 0.0	 0.0	 0.0	 0.0	 0.0	 0.0	 0.0	 0.0	 0.0	 0.0; % COW
	1708	 666.665	 133.035	 439.37	 -173.3	 1.037938	 100.0	 1	 1000.0	 333.33	 0.0	 0.0	 0.0	 0.0	 0.0	 0.0	 0.0	 0.0	 0.0	 0.0	 0.0; % COW
	1721	 20.0	 6.065	 18.52	 -6.39	 1.062238	 100.0	 1	 40.0	 0.0	 0.0	 0.0	 0.0	 0.0	 0.0	 0.0	 0.0	 0.0	 0.0	 0.0	 0.0; % NG
	1754	 20.53	 4.535	 16.99	 -7.92	 1.04286	 100.0	 1	 41.06	 0.0	 0.0	 0.0	 0.0	 0.0	 0.0	 0.0	 0.0	 0.0	 0.0	 0.0	 0.0; % NG
	1794	 1333.335	 314.335	 926.35	 -297.68	 1.05295	 100.0	 1	 2000.0	 666.67	 0.0	 0.0	 0.0	 0.0	 0.0	 0.0	 0.0	 0.0	 0.0	 0.0	 0.0; % COW
	1808	 49.6	 36.535	 111.23	 -38.16	 1.046224	 100.0	 1	 100.0	 -0.8	 0.0	 0.0	 0.0	 0.0	 0.0	 0.0	 0.0	 0.0	 0.0	 0.0	 0.0; % COW
	1851	 15.96	 1.435	 11.76	 -8.89	 1.04762	 100.0	 1	 31.92	 0.0	 0.0	 0.0	 0.0	 0.0	 0.0	 0.0	 0.0	 0.0	 0.0	 0.0	 0.0; % NG
	1852	 -111.2	 20.82	 58.16	 -16.52	 1.054325	 100.0	 1	 100.0	 -322.4	 0.0	 0.0	 0.0	 0.0	 0.0	 0.0	 0.0	 0.0	 0.0	 0.0	 0.0; % NG
	1888	 612.78	 120.095	 396.02	 -155.83	 1.039377	 100.0	 1	 912.78	 312.78	 0.0	 0.0	 0.0	 0.0	 0.0	 0.0	 0.0	 0.0	 0.0	 0.0	 0.0; % NUC
	1914	 255.755	 4.705	 160.36	 -150.95	 1.035636	 100.0	 1	 472.16	 39.35	 0.0	 0.0	 0.0	 0.0	 0.0	 0.0	 0.0	 0.0	 0.0	 0.0	 0.0; % PEL
	1959	 20.0	 5.695	 18.14	 -6.75	 1.064692	 100.0	 1	 40.0	 0.0	 0.0	 0.0	 0.0	 0.0	 0.0	 0.0	 0.0	 0.0	 0.0	 0.0	 0.0; % NG
	2035	 666.665	 135.29	 441.85	 -171.27	 1.03088	 100.0	 1	 1000.0	 333.33	 0.0	 0.0	 0.0	 0.0	 0.0	 0.0	 0.0	 0.0	 0.0	 0.0	 0.0; % COW
	2050	 1333.335	 349.275	 962.2	 -263.65	 1.009914	 100.0	 1	 2000.0	 666.67	 0.0	 0.0	 0.0	 0.0	 0.0	 0.0	 0.0	 0.0	 0.0	 0.0	 0.0; % COW
	2085	 100.0	 26.1	 88.39	 -36.19	 1.040351	 100.0	 1	 200.0	 0.0	 0.0	 0.0	 0.0	 0.0	 0.0	 0.0	 0.0	 0.0	 0.0	 0.0	 0.0; % NG
	2177	 -30.865	 21.045	 58.35	 -16.26	 1.07333	 100.0	 1	 100.0	 -161.73	 0.0	 0.0	 0.0	 0.0	 0.0	 0.0	 0.0	 0.0	 0.0	 0.0	 0.0; % COW
	2197	 14.475	 2.385	 19.51	 -14.74	 1.035528	 100.0	 1	 100.0	 -71.05	 0.0	 0.0	 0.0	 0.0	 0.0	 0.0	 0.0	 0.0	 0.0	 0.0	 0.0; % NG
	2276	 59.65	 2.585	 41.67	 -36.5	 1.05324	 100.0	 1	 119.3	 0.0	 0.0	 0.0	 0.0	 0.0	 0.0	 0.0	 0.0	 0.0	 0.0	 0.0	 0.0; % NG
	2291	 100.0	 33.38	 95.69	 -28.93	 1.072528	 100.0	 1	 200.0	 0.0	 0.0	 0.0	 0.0	 0.0	 0.0	 0.0	 0.0	 0.0	 0.0	 0.0	 0.0; % NG
	2359	 40.0	 9.425	 34.35	 -15.5	 1.024884	 100.0	 1	 80.0	 0.0	 0.0	 0.0	 0.0	 0.0	 0.0	 0.0	 0.0	 0.0	 0.0	 0.0	 0.0; % NG
	2421	 -163.6	 12.47	 37.39	 -12.45	 1.047766	 100.0	 1	 100.0	 -427.2	 0.0	 0.0	 0.0	 0.0	 0.0	 0.0	 0.0	 0.0	 0.0	 0.0	 0.0; % NG
	2425	 -17.0	 16.905	 54.3	 -20.49	 1.041186	 100.0	 1	 100.0	 -134.0	 0.0	 0.0	 0.0	 0.0	 0.0	 0.0	 0.0	 0.0	 0.0	 0.0	 0.0; % NG
	2426	 21.2	 3.16	 105.34	 -99.02	 1.037687	 100.0	 1	 100.0	 -57.6	 0.0	 0.0	 0.0	 0.0	 0.0	 0.0	 0.0	 0.0	 0.0	 0.0	 0.0; % NG
	2446	 1333.335	 308.445	 921.62	 -304.73	 1.06157	 100.0	 1	 2000.0	 666.67	 0.0	 0.0	 0.0	 0.0	 0.0	 0.0	 0.0	 0.0	 0.0	 0.0	 0.0; % NUC
	2468	 40.0	 13.105	 38.02	 -11.81	 1.048132	 100.0	 1	 80.0	 0.0	 0.0	 0.0	 0.0	 0.0	 0.0	 0.0	 0.0	 0.0	 0.0	 0.0	 0.0; % COW
	2481	 40.0	 14.205	 39.12	 -10.71	 1.042777	 100.0	 1	 80.0	 0.0	 0.0	 0.0	 0.0	 0.0	 0.0	 0.0	 0.0	 0.0	 0.0	 0.0	 0.0; % NG
	2489	 180.0	 50.305	 162.4	 -61.79	 1.049366	 100.0	 1	 360.0	 0.0	 0.0	 0.0	 0.0	 0.0	 0.0	 0.0	 0.0	 0.0	 0.0	 0.0	 0.0; % NG
	2550	 60.0	 20.87	 58.23	 -16.49	 1.049384	 100.0	 1	 120.0	 0.0	 0.0	 0.0	 0.0	 0.0	 0.0	 0.0	 0.0	 0.0	 0.0	 0.0	 0.0; % NG
	2600	 80.0	 26.245	 76.08	 -23.59	 1.038821	 100.0	 1	 160.0	 0.0	 0.0	 0.0	 0.0	 0.0	 0.0	 0.0	 0.0	 0.0	 0.0	 0.0	 0.0; % NG
	2627	 1333.335	 308.365	 921.52	 -304.79	 1.061488	 100.0	 1	 2000.0	 666.67	 0.0	 0.0	 0.0	 0.0	 0.0	 0.0	 0.0	 0.0	 0.0	 0.0	 0.0; % COW
	2653	 60.0	 14.57	 51.94	 -22.8	 1.036517	 100.0	 1	 120.0	 0.0	 0.0	 0.0	 0.0	 0.0	 0.0	 0.0	 0.0	 0.0	 0.0	 0.0	 0.0; % NG
	2719	 98.36	 6.025	 70.15	 -58.1	 1.035384	 100.0	 1	 196.72	 0.0	 0.0	 0.0	 0.0	 0.0	 0.0	 0.0	 0.0	 0.0	 0.0	 0.0	 0.0; % NG
	2786	 1333.335	 321.67	 934.81	 -291.47	 1.073795	 100.0	 1	 2000.0	 666.67	 0.0	 0.0	 0.0	 0.0	 0.0	 0.0	 0.0	 0.0	 0.0	 0.0	 0.0; % COW
	2797	 -13.4	 26.0	 88.33	 -36.33	 1.042226	 100.0	 1	 100.0	 -126.8	 0.0	 0.0	 0.0	 0.0	 0.0	 0.0	 0.0	 0.0	 0.0	 0.0	 0.0; % NG
	2799	 80.0	 28.125	 77.91	 -21.66	 1.05396	 100.0	 1	 160.0	 0.0	 0.0	 0.0	 0.0	 0.0	 0.0	 0.0	 0.0	 0.0	 0.0	 0.0	 0.0; % NG
	2816	 1333.335	 314.26	 926.26	 -297.74	 1.053944	 100.0	 1	 2000.0	 666.67	 0.0	 0.0	 0.0	 0.0	 0.0	 0.0	 0.0	 0.0	 0.0	 0.0	 0.0; % COW
	2841	 60.0	 18.61	 55.98	 -18.76	 1.08248	 100.0	 1	 120.0	 0.0	 0.0	 0.0	 0.0	 0.0	 0.0	 0.0	 0.0	 0.0	 0.0	 0.0	 0.0; % NG
	2842	 20.0	 5.725	 18.19	 -6.74	 1.043712	 100.0	 1	 40.0	 0.0	 0.0	 0.0	 0.0	 0.0	 0.0	 0.0	 0.0	 0.0	 0.0	 0.0	 0.0; % COW
	2872	 4.525	 0.385	 3.31	 -2.54	 1.063841	 100.0	 1	 9.05	 0.0	 0.0	 0.0	 0.0	 0.0	 0.0	 0.0	 0.0	 0.0	 0.0	 0.0	 0.0; % NG
	2878	 107.43	 2.12	 72.95	 -68.71	 1.057626	 100.0	 1	 214.86	 0.0	 0.0	 0.0	 0.0	 0.0	 0.0	 0.0	 0.0	 0.0	 0.0	 0.0	 0.0; % NG
	2886	 60.0	 20.335	 57.69	 -17.02	 1.055151	 100.0	 1	 120.0	 0.0	 0.0	 0.0	 0.0	 0.0	 0.0	 0.0	 0.0	 0.0	 0.0	 0.0	 0.0; % NG
	2902	 20.0	 6.735	 19.19	 -5.72	 1.059072	 100.0	 1	 40.0	 0.0	 0.0	 0.0	 0.0	 0.0	 0.0	 0.0	 0.0	 0.0	 0.0	 0.0	 0.0; % NG
	2930	 40.0	 12.35	 37.24	 -12.54	 1.047695	 100.0	 1	 80.0	 0.0	 0.0	 0.0	 0.0	 0.0	 0.0	 0.0	 0.0	 0.0	 0.0	 0.0	 0.0; % COW
	2934	 3.415	 0.3	 2.51	 -1.91	 1.051149	 100.0	 1	 6.83	 0.0	 0.0	 0.0	 0.0	 0.0	 0.0	 0.0	 0.0	 0.0	 0.0	 0.0	 0.0; % COW
	2985	 246.675	 25.895	 184.46	 -132.67	 1.053607	 100.0	 1	 493.35	 0.0	 0.0	 0.0	 0.0	 0.0	 0.0	 0.0	 0.0	 0.0	 0.0	 0.0	 0.0; % COW
	3018	 100.0	 27.395	 89.61	 -34.82	 1.041705	 100.0	 1	 200.0	 0.0	 0.0	 0.0	 0.0	 0.0	 0.0	 0.0	 0.0	 0.0	 0.0	 0.0	 0.0; % NG
	3028	 666.665	 135.29	 441.85	 -171.27	 1.030654	 100.0	 1	 1000.0	 333.33	 0.0	 0.0	 0.0	 0.0	 0.0	 0.0	 0.0	 0.0	 0.0	 0.0	 0.0; % COW
	3114	 20.0	 4.86	 17.33	 -7.61	 1.071964	 100.0	 1	 40.0	 0.0	 0.0	 0.0	 0.0	 0.0	 0.0	 0.0	 0.0	 0.0	 0.0	 0.0	 0.0; % NG
	3133	 120.0	 39.205	 113.97	 -35.56	 1.065372	 100.0	 1	 240.0	 0.0	 0.0	 0.0	 0.0	 0.0	 0.0	 0.0	 0.0	 0.0	 0.0	 0.0	 0.0; % COW
	3134	 -40.865	 20.46	 70.25	 -29.33	 1.023117	 100.0	 1	 100.0	 -181.73	 0.0	 0.0	 0.0	 0.0	 0.0	 0.0	 0.0	 0.0	 0.0	 0.0	 0.0; % NG
	3183	 60.0	 16.36	 53.7	 -20.98	 1.055515	 100.0	 1	 120.0	 0.0	 0.0	 0.0	 0.0	 0.0	 0.0	 0.0	 0.0	 0.0	 0.0	 0.0	 0.0; % COW
	3205	 270.0	 77.575	 243.61	 -88.46	 1.041982	 100.0	 1	 540.0	 0.0	 0.0	 0.0	 0.0	 0.0	 0.0	 0.0	 0.0	 0.0	 0.0	 0.0	 0.0; % NG
	3218	 -21.6	 11.895	 36.79	 -13.0	 1.028507	 100.0	 1	 100.0	 -143.2	 0.0	 0.0	 0.0	 0.0	 0.0	 0.0	 0.0	 0.0	 0.0	 0.0	 0.0; % COW
	3240	 21.8	 5.43	 62.23	 -51.37	 1.050305	 100.0	 1	 100.0	 -56.4	 0.0	 0.0	 0.0	 0.0	 0.0	 0.0	 0.0	 0.0	 0.0	 0.0	 0.0; % NG
	3306	 666.665	 132.885	 439.2	 -173.43	 1.071978	 100.0	 1	 1000.0	 333.33	 0.0	 0.0	 0.0	 0.0	 0.0	 0.0	 0.0	 0.0	 0.0	 0.0	 0.0; % NUC
	3324	 32.35	 13.245	 38.13	 -11.64	 1.014126	 100.0	 1	 100.0	 -35.3	 0.0	 0.0	 0.0	 0.0	 0.0	 0.0	 0.0	 0.0	 0.0	 0.0	 0.0; % NG
	3346	 40.0	 12.17	 37.1	 -12.76	 1.01594	 100.0	 1	 80.0	 0.0	 0.0	 0.0	 0.0	 0.0	 0.0	 0.0	 0.0	 0.0	 0.0	 0.0	 0.0; % NG
	3353	 40.0	 13.295	 38.2	 -11.61	 1.045739	 100.0	 1	 80.0	 0.0	 0.0	 0.0	 0.0	 0.0	 0.0	 0.0	 0.0	 0.0	 0.0	 0.0	 0.0; % PEL
	3364	 67.635	 2.875	 47.19	 -41.44	 1.0538	 100.0	 1	 135.27	 0.0	 0.0	 0.0	 0.0	 0.0	 0.0	 0.0	 0.0	 0.0	 0.0	 0.0	 0.0; % NG
	3390	 60.0	 17.2	 54.59	 -20.19	 1.039984	 100.0	 1	 120.0	 0.0	 0.0	 0.0	 0.0	 0.0	 0.0	 0.0	 0.0	 0.0	 0.0	 0.0	 0.0; % NG
	3422	 60.0	 20.845	 58.19	 -16.5	 1.063657	 100.0	 1	 120.0	 0.0	 0.0	 0.0	 0.0	 0.0	 0.0	 0.0	 0.0	 0.0	 0.0	 0.0	 0.0; % NG
	3436	 800.0	 183.04	 550.97	 -184.89	 1.060777	 100.0	 1	 1200.0	 400.0	 0.0	 0.0	 0.0	 0.0	 0.0	 0.0	 0.0	 0.0	 0.0	 0.0	 0.0; % NUC
	3492	 -197.2	 16.335	 53.75	 -21.08	 1.04852	 100.0	 1	 100.0	 -494.4	 0.0	 0.0	 0.0	 0.0	 0.0	 0.0	 0.0	 0.0	 0.0	 0.0	 0.0; % NG
	3513	 600.0	 112.24	 387.88	 -163.4	 1.028771	 100.0	 1	 900.0	 300.0	 0.0	 0.0	 0.0	 0.0	 0.0	 0.0	 0.0	 0.0	 0.0	 0.0	 0.0; % NUC
	3565	 40.0	 13.93	 38.83	 -10.97	 1.081614	 100.0	 1	 80.0	 0.0	 0.0	 0.0	 0.0	 0.0	 0.0	 0.0	 0.0	 0.0	 0.0	 0.0	 0.0; % NG
	3580	 300.0	 77.17	 261.7	 -107.36	 1.07602	 100.0	 1	 600.0	 0.0	 0.0	 0.0	 0.0	 0.0	 0.0	 0.0	 0.0	 0.0	 0.0	 0.0	 0.0; % NG
	3611	 -33.6	 17.235	 54.59	 -20.12	 1.03905	 100.0	 1	 100.0	 -167.2	 0.0	 0.0	 0.0	 0.0	 0.0	 0.0	 0.0	 0.0	 0.0	 0.0	 0.0; % NG
	3656	 32.535	 41.375	 116.07	 -33.32	 1.070983	 100.0	 1	 100.0	 -34.93	 0.0	 0.0	 0.0	 0.0	 0.0	 0.0	 0.0	 0.0	 0.0	 0.0	 0.0; % NG
	3661	 666.665	 134.495	 441.04	 -172.05	 1.059676	 100.0	 1	 1000.0	 333.33	 0.0	 0.0	 0.0	 0.0	 0.0	 0.0	 0.0	 0.0	 0.0	 0.0	 0.0; % PEL
	3698	 41.61	 11.435	 36.34	 -13.47	 1.041813	 100.0	 1	 100.0	 -16.78	 0.0	 0.0	 0.0	 0.0	 0.0	 0.0	 0.0	 0.0	 0.0	 0.0	 0.0; % COW
	3741	 800.0	 180.705	 548.57	 -187.16	 1.031629	 100.0	 1	 1200.0	 400.0	 0.0	 0.0	 0.0	 0.0	 0.0	 0.0	 0.0	 0.0	 0.0	 0.0	 0.0; % NUC
	3809	 466.665	 98.14	 313.01	 -116.73	 1.084785	 100.0	 1	 700.0	 233.33	 0.0	 0.0	 0.0	 0.0	 0.0	 0.0	 0.0	 0.0	 0.0	 0.0	 0.0; % COW
	3825	 600.0	 112.385	 388.17	 -163.4	 1.026994	 100.0	 1	 900.0	 300.0	 0.0	 0.0	 0.0	 0.0	 0.0	 0.0	 0.0	 0.0	 0.0	 0.0	 0.0; % NUC
	3869	 666.665	 134.275	 440.69	 -172.14	 1.031907	 100.0	 1	 1000.0	 333.33	 0.0	 0.0	 0.0	 0.0	 0.0	 0.0	 0.0	 0.0	 0.0	 0.0	 0.0; % COW
	3876	 33.265	 9.375	 34.27	 -15.52	 1.044501	 100.0	 1	 100.0	 -33.47	 0.0	 0.0	 0.0	 0.0	 0.0	 0.0	 0.0	 0.0	 0.0	 0.0	 0.0; % COW
	3916	 35.815	 13.125	 38.02	 -11.77	 1.043758	 100.0	 1	 100.0	 -28.37	 0.0	 0.0	 0.0	 0.0	 0.0	 0.0	 0.0	 0.0	 0.0	 0.0	 0.0; % COW
	3951	 31.935	 -0.7	 126.16	 -127.56	 1.027439	 100.0	 1	 100.0	 -36.13	 0.0	 0.0	 0.0	 0.0	 0.0	 0.0	 0.0	 0.0	 0.0	 0.0	 0.0; % NG
	3971	 -39.665	 18.29	 55.67	 -19.09	 1.063145	 100.0	 1	 100.0	 -179.33	 0.0	 0.0	 0.0	 0.0	 0.0	 0.0	 0.0	 0.0	 0.0	 0.0	 0.0; % NG
	4024	 100.0	 34.815	 97.07	 -27.44	 1.040328	 100.0	 1	 200.0	 0.0	 0.0	 0.0	 0.0	 0.0	 0.0	 0.0	 0.0	 0.0	 0.0	 0.0	 0.0; % NG
	4056	 -1.265	 13.14	 38.05	 -11.77	 1.038526	 100.0	 1	 100.0	 -102.53	 0.0	 0.0	 0.0	 0.0	 0.0	 0.0	 0.0	 0.0	 0.0	 0.0	 0.0; % NG
	4084	 300.0	 80.6	 264.94	 -103.74	 1.063234	 100.0	 1	 600.0	 0.0	 0.0	 0.0	 0.0	 0.0	 0.0	 0.0	 0.0	 0.0	 0.0	 0.0	 0.0; % NG
	4118	 40.0	 13.485	 38.37	 -11.4	 1.027195	 100.0	 1	 80.0	 0.0	 0.0	 0.0	 0.0	 0.0	 0.0	 0.0	 0.0	 0.0	 0.0	 0.0	 0.0; % NG
	4125	 40.0	 11.945	 36.89	 -13.0	 1.003502	 100.0	 1	 80.0	 0.0	 0.0	 0.0	 0.0	 0.0	 0.0	 0.0	 0.0	 0.0	 0.0	 0.0	 0.0; % NG
	4128	 60.0	 19.7	 57.03	 -17.63	 1.019761	 100.0	 1	 120.0	 0.0	 0.0	 0.0	 0.0	 0.0	 0.0	 0.0	 0.0	 0.0	 0.0	 0.0	 0.0; % COW
	4231	 2761.14	 0.0	 99999.0	 -99999.0	 1.049182	 100.0	 1	 4188.95	 1333.33	 0.0	 0.0	 0.0	 0.0	 0.0	 0.0	 0.0	 0.0	 0.0	 0.0	 0.0; % NUC
	4331	 40.0	 11.805	 36.73	 -13.12	 1.028646	 100.0	 1	 80.0	 0.0	 0.0	 0.0	 0.0	 0.0	 0.0	 0.0	 0.0	 0.0	 0.0	 0.0	 0.0; % NG
	4395	 -36.065	 13.575	 38.48	 -11.33	 1.039834	 100.0	 1	 100.0	 -172.13	 0.0	 0.0	 0.0	 0.0	 0.0	 0.0	 0.0	 0.0	 0.0	 0.0	 0.0; % NG
	4419	 666.665	 134.495	 441.04	 -172.05	 1.059565	 100.0	 1	 1000.0	 333.33	 0.0	 0.0	 0.0	 0.0	 0.0	 0.0	 0.0	 0.0	 0.0	 0.0	 0.0; % COW
	4480	 666.665	 132.885	 439.2	 -173.43	 1.071852	 100.0	 1	 1000.0	 333.33	 0.0	 0.0	 0.0	 0.0	 0.0	 0.0	 0.0	 0.0	 0.0	 0.0	 0.0; % COW
	4482	 40.0	 13.95	 38.85	 -10.95	 1.049914	 100.0	 1	 80.0	 0.0	 0.0	 0.0	 0.0	 0.0	 0.0	 0.0	 0.0	 0.0	 0.0	 0.0	 0.0; % NG
	4506	 -64.535	 12.955	 37.86	 -11.95	 1.036047	 100.0	 1	 100.0	 -229.07	 0.0	 0.0	 0.0	 0.0	 0.0	 0.0	 0.0	 0.0	 0.0	 0.0	 0.0; % NG
	4566	 29.745	 13.035	 37.94	 -11.87	 1.073282	 100.0	 1	 100.0	 -40.51	 0.0	 0.0	 0.0	 0.0	 0.0	 0.0	 0.0	 0.0	 0.0	 0.0	 0.0; % NG
	4624	 40.0	 10.715	 35.62	 -14.19	 1.042135	 100.0	 1	 80.0	 0.0	 0.0	 0.0	 0.0	 0.0	 0.0	 0.0	 0.0	 0.0	 0.0	 0.0	 0.0; % NG
	4661	 -2.6	 6.685	 19.14	 -5.77	 1.049813	 100.0	 1	 100.0	 -105.2	 0.0	 0.0	 0.0	 0.0	 0.0	 0.0	 0.0	 0.0	 0.0	 0.0	 0.0; % COW
	4701	 140.925	 6.055	 98.4	 -86.29	 1.043063	 100.0	 1	 281.85	 0.0	 0.0	 0.0	 0.0	 0.0	 0.0	 0.0	 0.0	 0.0	 0.0	 0.0	 0.0; % NG
	4783	 666.665	 132.885	 439.2	 -173.43	 1.071981	 100.0	 1	 1000.0	 333.33	 0.0	 0.0	 0.0	 0.0	 0.0	 0.0	 0.0	 0.0	 0.0	 0.0	 0.0; % NUC
	4816	 32.615	 13.465	 38.37	 -11.44	 1.067305	 100.0	 1	 100.0	 -34.77	 0.0	 0.0	 0.0	 0.0	 0.0	 0.0	 0.0	 0.0	 0.0	 0.0	 0.0; % NG
	4819	 666.665	 134.275	 440.69	 -172.14	 1.031907	 100.0	 1	 1000.0	 333.33	 0.0	 0.0	 0.0	 0.0	 0.0	 0.0	 0.0	 0.0	 0.0	 0.0	 0.0; % COW
	4823	 5.23	 1.185	 4.44	 -2.07	 1.067114	 100.0	 1	 10.46	 0.0	 0.0	 0.0	 0.0	 0.0	 0.0	 0.0	 0.0	 0.0	 0.0	 0.0	 0.0; % NG
	4850	 80.0	 26.665	 76.52	 -23.19	 1.054975	 100.0	 1	 160.0	 0.0	 0.0	 0.0	 0.0	 0.0	 0.0	 0.0	 0.0	 0.0	 0.0	 0.0	 0.0; % NG
	4880	 23.135	 25.83	 75.62	 -23.96	 1.034991	 100.0	 1	 100.0	 -53.73	 0.0	 0.0	 0.0	 0.0	 0.0	 0.0	 0.0	 0.0	 0.0	 0.0	 0.0; % NG
	4918	 40.0	 12.35	 37.27	 -12.57	 1.057325	 100.0	 1	 80.0	 0.0	 0.0	 0.0	 0.0	 0.0	 0.0	 0.0	 0.0	 0.0	 0.0	 0.0	 0.0; % NG
	4952	 41.615	 12.31	 37.23	 -12.61	 1.045386	 100.0	 1	 100.0	 -16.77	 0.0	 0.0	 0.0	 0.0	 0.0	 0.0	 0.0	 0.0	 0.0	 0.0	 0.0; % NG
	5004	 110.06	 2.16	 74.73	 -70.41	 1.0663	 100.0	 1	 220.12	 0.0	 0.0	 0.0	 0.0	 0.0	 0.0	 0.0	 0.0	 0.0	 0.0	 0.0	 0.0; % NG
	5019	 40.0	 12.815	 37.72	 -12.09	 1.047693	 100.0	 1	 80.0	 0.0	 0.0	 0.0	 0.0	 0.0	 0.0	 0.0	 0.0	 0.0	 0.0	 0.0	 0.0; % COW
	5051	 80.0	 24.79	 74.55	 -24.97	 1.037373	 100.0	 1	 160.0	 0.0	 0.0	 0.0	 0.0	 0.0	 0.0	 0.0	 0.0	 0.0	 0.0	 0.0	 0.0; % PEL
	5067	 300.0	 74.665	 258.91	 -109.58	 1.021924	 100.0	 1	 600.0	 0.0	 0.0	 0.0	 0.0	 0.0	 0.0	 0.0	 0.0	 0.0	 0.0	 0.0	 0.0; % COW
	5110	 14.995	 13.39	 38.28	 -11.5	 1.032061	 100.0	 1	 100.0	 -70.01	 0.0	 0.0	 0.0	 0.0	 0.0	 0.0	 0.0	 0.0	 0.0	 0.0	 0.0; % COW
	5120	 60.0	 18.965	 56.35	 -18.42	 1.055539	 100.0	 1	 120.0	 0.0	 0.0	 0.0	 0.0	 0.0	 0.0	 0.0	 0.0	 0.0	 0.0	 0.0	 0.0; % NG
	5144	 1333.335	 269.81	 882.86	 -343.24	 1.035201	 100.0	 1	 2000.0	 666.67	 0.0	 0.0	 0.0	 0.0	 0.0	 0.0	 0.0	 0.0	 0.0	 0.0	 0.0; % NG
	5237	 80.0	 25.14	 75.02	 -24.74	 1.052719	 100.0	 1	 160.0	 0.0	 0.0	 0.0	 0.0	 0.0	 0.0	 0.0	 0.0	 0.0	 0.0	 0.0	 0.0; % NG
	5278	 60.0	 13.905	 51.3	 -23.49	 1.042037	 100.0	 1	 120.0	 0.0	 0.0	 0.0	 0.0	 0.0	 0.0	 0.0	 0.0	 0.0	 0.0	 0.0	 0.0; % NG
	5340	 -56.0	 11.47	 36.37	 -13.43	 1.054941	 100.0	 1	 100.0	 -212.0	 0.0	 0.0	 0.0	 0.0	 0.0	 0.0	 0.0	 0.0	 0.0	 0.0	 0.0; % NG
	5365	 20.0	 5.695	 18.14	 -6.75	 1.061754	 100.0	 1	 40.0	 0.0	 0.0	 0.0	 0.0	 0.0	 0.0	 0.0	 0.0	 0.0	 0.0	 0.0	 0.0; % NG
	5379	 1333.335	 314.42	 926.47	 -297.63	 1.107976	 100.0	 1	 2000.0	 666.67	 0.0	 0.0	 0.0	 0.0	 0.0	 0.0	 0.0	 0.0	 0.0	 0.0	 0.0; % COW
	5395	 -213.865	 20.7	 58.06	 -16.66	 1.048137	 100.0	 1	 100.0	 -527.73	 0.0	 0.0	 0.0	 0.0	 0.0	 0.0	 0.0	 0.0	 0.0	 0.0	 0.0; % NG
	5461	 40.0	 13.355	 38.26	 -11.55	 1.06213	 100.0	 1	 80.0	 0.0	 0.0	 0.0	 0.0	 0.0	 0.0	 0.0	 0.0	 0.0	 0.0	 0.0	 0.0; % NG
	5481	 1333.335	 307.335	 920.31	 -305.64	 1.063711	 100.0	 1	 2000.0	 666.67	 0.0	 0.0	 0.0	 0.0	 0.0	 0.0	 0.0	 0.0	 0.0	 0.0	 0.0; % COW
	5482	 124.53	 26.6	 101.32	 -48.12	 1.044486	 100.0	 1	 249.06	 0.0	 0.0	 0.0	 0.0	 0.0	 0.0	 0.0	 0.0	 0.0	 0.0	 0.0	 0.0; % NG
	5486	 666.665	 134.495	 441.04	 -172.05	 1.059636	 100.0	 1	 1000.0	 333.33	 0.0	 0.0	 0.0	 0.0	 0.0	 0.0	 0.0	 0.0	 0.0	 0.0	 0.0; % COW
	5488	 -14.265	 12.58	 37.49	 -12.33	 1.041881	 100.0	 1	 100.0	 -128.53	 0.0	 0.0	 0.0	 0.0	 0.0	 0.0	 0.0	 0.0	 0.0	 0.0	 0.0; % NG
	5490	 2666.665	 539.345	 1765.36	 -686.67	 1.068845	 100.0	 1	 4000.0	 1333.33	 0.0	 0.0	 0.0	 0.0	 0.0	 0.0	 0.0	 0.0	 0.0	 0.0	 0.0; % COW
	5533	 100.0	 26.58	 88.87	 -35.71	 1.038212	 100.0	 1	 200.0	 0.0	 0.0	 0.0	 0.0	 0.0	 0.0	 0.0	 0.0	 0.0	 0.0	 0.0	 0.0; % NG
	5546	 20.0	 6.705	 19.16	 -5.75	 1.05378	 100.0	 1	 40.0	 0.0	 0.0	 0.0	 0.0	 0.0	 0.0	 0.0	 0.0	 0.0	 0.0	 0.0	 0.0; % COW
	5564	 40.0	 11.905	 36.8	 -12.99	 1.04123	 100.0	 1	 80.0	 0.0	 0.0	 0.0	 0.0	 0.0	 0.0	 0.0	 0.0	 0.0	 0.0	 0.0	 0.0; % NG
	5658	 120.0	 28.465	 103.18	 -46.25	 1.017689	 100.0	 1	 240.0	 0.0	 0.0	 0.0	 0.0	 0.0	 0.0	 0.0	 0.0	 0.0	 0.0	 0.0	 0.0; % COW
	5664	 80.0	 22.83	 72.71	 -27.05	 1.070507	 100.0	 1	 160.0	 0.0	 0.0	 0.0	 0.0	 0.0	 0.0	 0.0	 0.0	 0.0	 0.0	 0.0	 0.0; % NG
	5709	 800.0	 182.77	 550.69	 -185.15	 1.027078	 100.0	 1	 1200.0	 400.0	 0.0	 0.0	 0.0	 0.0	 0.0	 0.0	 0.0	 0.0	 0.0	 0.0	 0.0; % COW
	5781	 1200.0	 227.25	 779.29	 -324.79	 1.0396	 100.0	 1	 1800.0	 600.0	 0.0	 0.0	 0.0	 0.0	 0.0	 0.0	 0.0	 0.0	 0.0	 0.0	 0.0; % NG
	5814	 293.335	 59.905	 196.98	 -77.17	 1.044051	 100.0	 1	 440.0	 146.67	 0.0	 0.0	 0.0	 0.0	 0.0	 0.0	 0.0	 0.0	 0.0	 0.0	 0.0; % NG
	5856	 320.0	 64.565	 214.13	 -85.0	 1.038417	 100.0	 1	 480.0	 160.0	 0.0	 0.0	 0.0	 0.0	 0.0	 0.0	 0.0	 0.0	 0.0	 0.0	 0.0; % NG
	5881	 40.0	 11.795	 36.72	 -13.13	 1.065605	 100.0	 1	 80.0	 0.0	 0.0	 0.0	 0.0	 0.0	 0.0	 0.0	 0.0	 0.0	 0.0	 0.0	 0.0; % PEL
	5940	 0.065	 4.74	 17.21	 -7.73	 1.030075	 100.0	 1	 100.0	 -99.87	 0.0	 0.0	 0.0	 0.0	 0.0	 0.0	 0.0	 0.0	 0.0	 0.0	 0.0; % NG
	5971	 1333.335	 321.45	 934.54	 -291.64	 1.070056	 100.0	 1	 2000.0	 666.67	 0.0	 0.0	 0.0	 0.0	 0.0	 0.0	 0.0	 0.0	 0.0	 0.0	 0.0; % COW
	5983	 -18.335	 12.34	 37.27	 -12.59	 1.066029	 100.0	 1	 100.0	 -136.67	 0.0	 0.0	 0.0	 0.0	 0.0	 0.0	 0.0	 0.0	 0.0	 0.0	 0.0; % NG
	5994	 -8.2	 -0.285	 60.51	 -61.08	 1.029184	 100.0	 1	 100.0	 -116.4	 0.0	 0.0	 0.0	 0.0	 0.0	 0.0	 0.0	 0.0	 0.0	 0.0	 0.0; % COW
	6036	 600.0	 114.62	 390.4	 -161.16	 1.043738	 100.0	 1	 900.0	 300.0	 0.0	 0.0	 0.0	 0.0	 0.0	 0.0	 0.0	 0.0	 0.0	 0.0	 0.0; % NUC
	6153	 401.01	 -6.085	 249.65	 -261.82	 0.988112	 100.0	 1	 769.94	 32.08	 0.0	 0.0	 0.0	 0.0	 0.0	 0.0	 0.0	 0.0	 0.0	 0.0	 0.0; % COW
	6168	 26.88	 2.465	 19.86	 -14.93	 1.040343	 100.0	 1	 53.76	 0.0	 0.0	 0.0	 0.0	 0.0	 0.0	 0.0	 0.0	 0.0	 0.0	 0.0	 0.0; % NG
	6291	 60.0	 20.76	 58.12	 -16.6	 1.040598	 100.0	 1	 120.0	 0.0	 0.0	 0.0	 0.0	 0.0	 0.0	 0.0	 0.0	 0.0	 0.0	 0.0	 0.0; % NG
	6331	 40.0	 12.855	 37.76	 -12.05	 1.052181	 100.0	 1	 80.0	 0.0	 0.0	 0.0	 0.0	 0.0	 0.0	 0.0	 0.0	 0.0	 0.0	 0.0	 0.0; % NG
	6332	 100.0	 34.305	 96.56	 -27.95	 1.062214	 100.0	 1	 200.0	 0.0	 0.0	 0.0	 0.0	 0.0	 0.0	 0.0	 0.0	 0.0	 0.0	 0.0	 0.0; % COW
	6351	 40.0	 13.365	 38.29	 -11.56	 1.064446	 100.0	 1	 80.0	 0.0	 0.0	 0.0	 0.0	 0.0	 0.0	 0.0	 0.0	 0.0	 0.0	 0.0	 0.0; % NG
	6368	 -46.865	 13.825	 51.11	 -23.46	 1.043835	 100.0	 1	 100.0	 -193.73	 0.0	 0.0	 0.0	 0.0	 0.0	 0.0	 0.0	 0.0	 0.0	 0.0	 0.0; % NG
	6376	 31.465	 48.96	 148.65	 -50.73	 1.046714	 100.0	 1	 100.0	 -37.07	 0.0	 0.0	 0.0	 0.0	 0.0	 0.0	 0.0	 0.0	 0.0	 0.0	 0.0; % COW
	6429	 100.0	 26.57	 88.83	 -35.69	 1.039574	 100.0	 1	 200.0	 0.0	 0.0	 0.0	 0.0	 0.0	 0.0	 0.0	 0.0	 0.0	 0.0	 0.0	 0.0; % NG
	6474	 666.665	 132.285	 438.72	 -174.15	 1.06557	 100.0	 1	 1000.0	 333.33	 0.0	 0.0	 0.0	 0.0	 0.0	 0.0	 0.0	 0.0	 0.0	 0.0	 0.0; % COW
	6516	 140.0	 39.45	 126.73	 -47.83	 1.052452	 100.0	 1	 280.0	 0.0	 0.0	 0.0	 0.0	 0.0	 0.0	 0.0	 0.0	 0.0	 0.0	 0.0	 0.0; % COW
	6552	 -86.135	 12.71	 37.58	 -12.16	 1.048796	 100.0	 1	 100.0	 -272.27	 0.0	 0.0	 0.0	 0.0	 0.0	 0.0	 0.0	 0.0	 0.0	 0.0	 0.0; % NG
	6734	 360.0	 89.715	 311.52	 -132.09	 1.061492	 100.0	 1	 720.0	 0.0	 0.0	 0.0	 0.0	 0.0	 0.0	 0.0	 0.0	 0.0	 0.0	 0.0	 0.0; % COW
	6807	 80.0	 27.34	 77.14	 -22.46	 1.006037	 100.0	 1	 160.0	 0.0	 0.0	 0.0	 0.0	 0.0	 0.0	 0.0	 0.0	 0.0	 0.0	 0.0	 0.0; % COW
	6816	 80.0	 27.545	 77.35	 -22.26	 1.053803	 100.0	 1	 160.0	 0.0	 0.0	 0.0	 0.0	 0.0	 0.0	 0.0	 0.0	 0.0	 0.0	 0.0	 0.0; % COW
	6820	 16.265	 1.465	 11.99	 -9.06	 1.049557	 100.0	 1	 32.53	 0.0	 0.0	 0.0	 0.0	 0.0	 0.0	 0.0	 0.0	 0.0	 0.0	 0.0	 0.0; % PEL
	6831	 11.665	 10.685	 35.62	 -14.25	 1.031347	 100.0	 1	 100.0	 -76.67	 0.0	 0.0	 0.0	 0.0	 0.0	 0.0	 0.0	 0.0	 0.0	 0.0	 0.0; % COW
	6845	 60.0	 15.885	 53.24	 -21.47	 1.055216	 100.0	 1	 120.0	 0.0	 0.0	 0.0	 0.0	 0.0	 0.0	 0.0	 0.0	 0.0	 0.0	 0.0	 0.0; % COW
	6852	 -179.935	 6.11	 18.56	 -6.34	 1.031296	 100.0	 1	 100.0	 -459.87	 0.0	 0.0	 0.0	 0.0	 0.0	 0.0	 0.0	 0.0	 0.0	 0.0	 0.0; % NG
	6857	 2666.665	 639.94	 1865.83	 -585.95	 1.021411	 100.0	 1	 4000.0	 1333.33	 0.0	 0.0	 0.0	 0.0	 0.0	 0.0	 0.0	 0.0	 0.0	 0.0	 0.0; % COW
	6888	 194.335	 64.72	 189.31	 -59.87	 1.039234	 100.0	 1	 300.0	 88.67	 0.0	 0.0	 0.0	 0.0	 0.0	 0.0	 0.0	 0.0	 0.0	 0.0	 0.0; % NG
	6947	 140.0	 38.9	 126.09	 -48.29	 1.051367	 100.0	 1	 280.0	 0.0	 0.0	 0.0	 0.0	 0.0	 0.0	 0.0	 0.0	 0.0	 0.0	 0.0	 0.0; % NG
...
];

%% generator cost data
%	2	startup	shutdown	n	c(n-1)	...	c0
mpc.gencost = [
	2	 0.0	 0.0	 3	   0.000000	  12.059232	   0.000000; % COW
	2	 0.0	 0.0	 3	   0.000000	  47.340248	   0.000000; % NG
	2	 0.0	 0.0	 3	   0.000000	  26.091686	   0.000000; % COW
	2	 0.0	 0.0	 3	   0.000000	  35.760817	   0.000000; % NG
	2	 0.0	 0.0	 3	   0.000000	  25.189769	   0.000000; % COW
	2	 0.0	 0.0	 3	   0.000000	  48.798110	   0.000000; % NG
	2	 0.0	 0.0	 3	   0.000000	  28.754861	   0.000000; % NG
	2	 0.0	 0.0	 3	   0.000000	   6.707140	   0.000000; % NUC
	2	 0.0	 0.0	 3	   0.000000	  27.028782	   0.000000; % COW
	2	 0.0	 0.0	 3	   0.000000	  42.047739	   0.000000; % NG
	2	 0.0	 0.0	 3	   0.000000	  47.219202	   0.000000; % NG
	2	 0.0	 0.0	 3	   0.000000	  33.350621	   0.000000; % NG
	2	 0.0	 0.0	 3	   0.000000	  29.113367	   0.000000; % NG
	2	 0.0	 0.0	 3	   0.000000	  24.584783	   0.000000; % NG
	2	 0.0	 0.0	 3	   0.000000	  12.881137	   0.000000; % COW
	2	 0.0	 0.0	 3	   0.000000	  16.220750	   0.000000; % NG
	2	 0.0	 0.0	 3	   0.000000	  55.905635	   0.000000; % NG
	2	 0.0	 0.0	 3	   0.000000	  58.350066	   0.000000; % NG
	2	 0.0	 0.0	 3	   0.000000	  40.698477	   0.000000; % NG
	2	 0.0	 0.0	 3	   0.000000	  33.044388	   0.000000; % COW
	2	 0.0	 0.0	 3	   0.000000	  29.494050	   0.000000; % COW
	2	 0.0	 0.0	 3	   0.000000	  18.957476	   0.000000; % COW
	2	 0.0	 0.0	 3	   0.000000	  28.686350	   0.000000; % COW
	2	 0.0	 0.0	 3	   0.000000	  18.112743	   0.000000; % COW
	2	 0.0	 0.0	 3	   0.000000	  34.158721	   0.000000; % COW
	2	 0.0	 0.0	 3	   0.000000	  38.121090	   0.000000; % NG
	2	 0.0	 0.0	 3	   0.000000	  38.678178	   0.000000; % NG
	2	 0.0	 0.0	 3	   0.000000	  49.385084	   0.000000; % NG
	2	 0.0	 0.0	 3	   0.000000	  46.772171	   0.000000; % NG
	2	 0.0	 0.0	 3	   0.000000	  33.989256	   0.000000; % COW
	2	 0.0	 0.0	 3	   0.000000	  53.312320	   0.000000; % NG
	2	 0.0	 0.0	 3	   0.000000	  55.222539	   0.000000; % NG
	2	 0.0	 0.0	 3	   0.000000	  20.303428	   0.000000; % COW
	2	 0.0	 0.0	 3	   0.000000	  38.861967	   0.000000; % COW
	2	 0.0	 0.0	 3	   0.000000	  44.301119	   0.000000; % NG
	2	 0.0	 0.0	 3	   0.000000	  45.777356	   0.000000; % NG
	2	 0.0	 0.0	 3	   0.000000	  37.019494	   0.000000; % NG
	2	 0.0	 0.0	 3	   0.000000	  39.587498	   0.000000; % NG
	2	 0.0	 0.0	 3	   0.000000	  41.356340	   0.000000; % NG
	2	 0.0	 0.0	 3	   0.000000	  41.585769	   0.000000; % NG
	2	 0.0	 0.0	 3	   0.000000	  50.904736	   0.000000; % NG
	2	 0.0	 0.0	 3	   0.000000	  54.076154	   0.000000; % NG
	2	 0.0	 0.0	 3	   0.000000	  21.148471	   0.000000; % COW
	2	 0.0	 0.0	 3	   0.000000	  19.476560	   0.000000; % COW
	2	 0.0	 0.0	 3	   0.000000	  52.829400	   0.000000; % NG
	2	 0.0	 0.0	 3	   0.000000	  53.708856	   0.000000; % NG
	2	 0.0	 0.0	 3	   0.000000	  17.590650	   0.000000; % COW
	2	 0.0	 0.0	 3	   0.000000	  22.271556	   0.000000; % COW
	2	 0.0	 0.0	 3	   0.000000	  31.445572	   0.000000; % NG
	2	 0.0	 0.0	 3	   0.000000	  29.840968	   0.000000; % NG
	2	 0.0	 0.0	 3	   0.000000	   7.299133	   0.000000; % NUC
	2	 0.0	 0.0	 3	   0.000000	 145.905108	   0.000000; % PEL
	2	 0.0	 0.0	 3	   0.000000	  33.350127	   0.000000; % NG
	2	 0.0	 0.0	 3	   0.000000	  20.067099	   0.000000; % COW
	2	 0.0	 0.0	 3	   0.000000	  32.667237	   0.000000; % COW
	2	 0.0	 0.0	 3	   0.000000	  39.208852	   0.000000; % NG
	2	 0.0	 0.0	 3	   0.000000	  25.719248	   0.000000; % COW
	2	 0.0	 0.0	 3	   0.000000	  49.704005	   0.000000; % NG
	2	 0.0	 0.0	 3	   0.000000	  50.114822	   0.000000; % NG
	2	 0.0	 0.0	 3	   0.000000	  46.523411	   0.000000; % NG
	2	 0.0	 0.0	 3	   0.000000	  44.130694	   0.000000; % NG
	2	 0.0	 0.0	 3	   0.000000	  37.862355	   0.000000; % NG
	2	 0.0	 0.0	 3	   0.000000	  51.603216	   0.000000; % NG
	2	 0.0	 0.0	 3	   0.000000	  47.961494	   0.000000; % NG
	2	 0.0	 0.0	 3	   0.000000	   7.232658	   0.000000; % NUC
	2	 0.0	 0.0	 3	   0.000000	  28.032660	   0.000000; % COW
	2	 0.0	 0.0	 3	   0.000000	  40.700439	   0.000000; % NG
	2	 0.0	 0.0	 3	   0.000000	  40.247061	   0.000000; % NG
	2	 0.0	 0.0	 3	   0.000000	  48.867480	   0.000000; % NG
	2	 0.0	 0.0	 3	   0.000000	  49.613312	   0.000000; % NG
	2	 0.0	 0.0	 3	   0.000000	  29.783184	   0.000000; % COW
	2	 0.0	 0.0	 3	   0.000000	  57.149211	   0.000000; % NG
	2	 0.0	 0.0	 3	   0.000000	  44.990099	   0.000000; % NG
	2	 0.0	 0.0	 3	   0.000000	  12.428734	   0.000000; % COW
	2	 0.0	 0.0	 3	   0.000000	  29.225717	   0.000000; % NG
	2	 0.0	 0.0	 3	   0.000000	  45.995379	   0.000000; % NG
	2	 0.0	 0.0	 3	   0.000000	  24.896525	   0.000000; % COW
	2	 0.0	 0.0	 3	   0.000000	  37.866683	   0.000000; % NG
	2	 0.0	 0.0	 3	   0.000000	  24.591025	   0.000000; % COW
	2	 0.0	 0.0	 3	   0.000000	  42.955722	   0.000000; % NG
	2	 0.0	 0.0	 3	   0.000000	  35.675950	   0.000000; % NG
	2	 0.0	 0.0	 3	   0.000000	  46.671392	   0.000000; % NG
	2	 0.0	 0.0	 3	   0.000000	  43.168900	   0.000000; % NG
	2	 0.0	 0.0	 3	   0.000000	  19.260756	   0.000000; % COW
	2	 0.0	 0.0	 3	   0.000000	  23.790663	   0.000000; % COW
	2	 0.0	 0.0	 3	   0.000000	  28.574761	   0.000000; % COW
	2	 0.0	 0.0	 3	   0.000000	  43.669874	   0.000000; % NG
	2	 0.0	 0.0	 3	   0.000000	  24.683464	   0.000000; % COW
	2	 0.0	 0.0	 3	   0.000000	  33.219189	   0.000000; % NG
	2	 0.0	 0.0	 3	   0.000000	  27.127784	   0.000000; % COW
	2	 0.0	 0.0	 3	   0.000000	  40.874320	   0.000000; % NG
	2	 0.0	 0.0	 3	   0.000000	  38.943911	   0.000000; % COW
	2	 0.0	 0.0	 3	   0.000000	  43.699798	   0.000000; % NG
	2	 0.0	 0.0	 3	   0.000000	  30.976507	   0.000000; % COW
	2	 0.0	 0.0	 3	   0.000000	  49.601952	   0.000000; % NG
	2	 0.0	 0.0	 3	   0.000000	   7.826109	   0.000000; % NUC
	2	 0.0	 0.0	 3	   0.000000	  29.061604	   0.000000; % NG
	2	 0.0	 0.0	 3	   0.000000	  37.730411	   0.000000; % NG
	2	 0.0	 0.0	 3	   0.000000	  70.372982	   0.000000; % PEL
	2	 0.0	 0.0	 3	   0.000000	  36.844539	   0.000000; % NG
	2	 0.0	 0.0	 3	   0.000000	  46.428472	   0.000000; % NG
	2	 0.0	 0.0	 3	   0.000000	  49.865937	   0.000000; % NG
	2	 0.0	 0.0	 3	   0.000000	   7.911200	   0.000000; % NUC
	2	 0.0	 0.0	 3	   0.000000	  53.017155	   0.000000; % NG
	2	 0.0	 0.0	 3	   0.000000	   7.606470	   0.000000; % NUC
	2	 0.0	 0.0	 3	   0.000000	  48.725698	   0.000000; % NG
	2	 0.0	 0.0	 3	   0.000000	  43.509921	   0.000000; % NG
	2	 0.0	 0.0	 3	   0.000000	  35.651370	   0.000000; % NG
	2	 0.0	 0.0	 3	   0.000000	  40.519117	   0.000000; % NG
	2	 0.0	 0.0	 3	   0.000000	 111.474724	   0.000000; % PEL
	2	 0.0	 0.0	 3	   0.000000	  33.348644	   0.000000; % COW
	2	 0.0	 0.0	 3	   0.000000	   7.497892	   0.000000; % NUC
	2	 0.0	 0.0	 3	   0.000000	  19.860661	   0.000000; % COW
	2	 0.0	 0.0	 3	   0.000000	   7.853912	   0.000000; % NUC
	2	 0.0	 0.0	 3	   0.000000	  35.574926	   0.000000; % COW
	2	 0.0	 0.0	 3	   0.000000	  20.915943	   0.000000; % COW
	2	 0.0	 0.0	 3	   0.000000	  26.798612	   0.000000; % COW
	2	 0.0	 0.0	 3	   0.000000	  54.733929	   0.000000; % NG
	2	 0.0	 0.0	 3	   0.000000	  47.184952	   0.000000; % NG
	2	 0.0	 0.0	 3	   0.000000	  47.400146	   0.000000; % NG
	2	 0.0	 0.0	 3	   0.000000	  50.600457	   0.000000; % NG
	2	 0.0	 0.0	 3	   0.000000	  32.215563	   0.000000; % NG
	2	 0.0	 0.0	 3	   0.000000	  43.093688	   0.000000; % NG
	2	 0.0	 0.0	 3	   0.000000	  42.772113	   0.000000; % NG
	2	 0.0	 0.0	 3	   0.000000	  35.910045	   0.000000; % COW
	2	 0.0	 0.0	 3	   0.000000	   7.438222	   0.000000; % NUC
	2	 0.0	 0.0	 3	   0.000000	  53.159095	   0.000000; % NG
	2	 0.0	 0.0	 3	   0.000000	  39.915971	   0.000000; % NG
	2	 0.0	 0.0	 3	   0.000000	  31.245803	   0.000000; % COW
	2	 0.0	 0.0	 3	   0.000000	  29.383663	   0.000000; % COW
	2	 0.0	 0.0	 3	   0.000000	  35.776887	   0.000000; % NG
	2	 0.0	 0.0	 3	   0.000000	  48.714971	   0.000000; % NG
	2	 0.0	 0.0	 3	   0.000000	  49.308150	   0.000000; % NG
	2	 0.0	 0.0	 3	   0.000000	  19.734973	   0.000000; % NG
	2	 0.0	 0.0	 3	   0.000000	  23.382623	   0.000000; % COW
	2	 0.0	 0.0	 3	   0.000000	  33.337649	   0.000000; % NG
	2	 0.0	 0.0	 3	   0.000000	   8.241125	   0.000000; % NUC
	2	 0.0	 0.0	 3	   0.000000	  33.901550	   0.000000; % NG
	2	 0.0	 0.0	 3	   0.000000	  43.986415	   0.000000; % COW
	2	 0.0	 0.0	 3	   0.000000	  54.047136	   0.000000; % NG
	2	 0.0	 0.0	 3	   0.000000	  47.661958	   0.000000; % NG
	2	 0.0	 0.0	 3	   0.000000	  37.991749	   0.000000; % NG
	2	 0.0	 0.0	 3	   0.000000	  49.278514	   0.000000; % NG
	2	 0.0	 0.0	 3	   0.000000	  45.007449	   0.000000; % NG
	2	 0.0	 0.0	 3	   0.000000	  47.836718	   0.000000; % NG
	2	 0.0	 0.0	 3	   0.000000	  29.689454	   0.000000; % COW
	2	 0.0	 0.0	 3	   0.000000	 108.335710	   0.000000; % PEL
	2	 0.0	 0.0	 3	   0.000000	  27.967877	   0.000000; % COW
	2	 0.0	 0.0	 3	   0.000000	  18.665230	   0.000000; % COW
	2	 0.0	 0.0	 3	   0.000000	  45.985005	   0.000000; % NG
	2	 0.0	 0.0	 3	   0.000000	  48.180139	   0.000000; % NG
	2	 0.0	 0.0	 3	   0.000000	  49.095565	   0.000000; % NG
	2	 0.0	 0.0	 3	   0.000000	  23.751551	   0.000000; % NG
	2	 0.0	 0.0	 3	   0.000000	  49.548717	   0.000000; % NG
	2	 0.0	 0.0	 3	   0.000000	  29.085970	   0.000000; % NG
	2	 0.0	 0.0	 3	   0.000000	  29.019111	   0.000000; % COW
	2	 0.0	 0.0	 3	   0.000000	  50.580987	   0.000000; % NG
	2	 0.0	 0.0	 3	   0.000000	  50.468392	   0.000000; % NG
	2	 0.0	 0.0	 3	   0.000000	  16.330152	   0.000000; % COW
	2	 0.0	 0.0	 3	   0.000000	  42.003692	   0.000000; % NG
	2	 0.0	 0.0	 3	   0.000000	  33.899460	   0.000000; % COW
	2	 0.0	 0.0	 3	   0.000000	  40.831039	   0.000000; % NG
	2	 0.0	 0.0	 3	   0.000000	  19.617044	   0.000000; % COW
	2	 0.0	 0.0	 3	   0.000000	  52.018822	   0.000000; % NG
	2	 0.0	 0.0	 3	   0.000000	  32.306054	   0.000000; % COW
	2	 0.0	 0.0	 3	   0.000000	  45.419977	   0.000000; % NG
	2	 0.0	 0.0	 3	   0.000000	  14.798413	   0.000000; % COW
	2	 0.0	 0.0	 3	   0.000000	  44.214124	   0.000000; % NG
	2	 0.0	 0.0	 3	   0.000000	  18.152475	   0.000000; % COW
	2	 0.0	 0.0	 3	   0.000000	  42.697591	   0.000000; % NG
	2	 0.0	 0.0	 3	   0.000000	  43.899237	   0.000000; % NG
	2	 0.0	 0.0	 3	   0.000000	  38.516490	   0.000000; % NG
	2	 0.0	 0.0	 3	   0.000000	 137.646520	   0.000000; % PEL
	2	 0.0	 0.0	 3	   0.000000	  58.718667	   0.000000; % NG
	2	 0.0	 0.0	 3	   0.000000	  36.954186	   0.000000; % COW
	2	 0.0	 0.0	 3	   0.000000	  55.157584	   0.000000; % NG
	2	 0.0	 0.0	 3	   0.000000	   6.891119	   0.000000; % COW
	2	 0.0	 0.0	 3	   0.000000	   8.164640	   0.000000; % NUC
	2	 0.0	 0.0	 3	   0.000000	  16.641184	   0.000000; % COW
	2	 0.0	 0.0	 3	   0.000000	  43.644588	   0.000000; % NG
	2	 0.0	 0.0	 3	   0.000000	  52.011454	   0.000000; % NG
	2	 0.0	 0.0	 3	   0.000000	  47.824850	   0.000000; % NG
	2	 0.0	 0.0	 3	   0.000000	  17.422160	   0.000000; % COW
	2	 0.0	 0.0	 3	   0.000000	  44.565138	   0.000000; % NG
	2	 0.0	 0.0	 3	   0.000000	  32.308264	   0.000000; % NG
	2	 0.0	 0.0	 3	   0.000000	  26.223339	   0.000000; % COW
	2	 0.0	 0.0	 3	   0.000000	  47.648681	   0.000000; % NG
	2	 0.0	 0.0	 3	   0.000000	  43.183599	   0.000000; % COW
	2	 0.0	 0.0	 3	   0.000000	  27.029404	   0.000000; % COW
	2	 0.0	 0.0	 3	   0.000000	  57.402525	   0.000000; % NG
	2	 0.0	 0.0	 3	   0.000000	  15.855938	   0.000000; % COW
	2	 0.0	 0.0	 3	   0.000000	  15.786559	   0.000000; % COW
	2	 0.0	 0.0	 3	   0.000000	  25.253896	   0.000000; % COW
	2	 0.0	 0.0	 3	   0.000000	 139.084827	   0.000000; % PEL
	2	 0.0	 0.0	 3	   0.000000	  32.292153	   0.000000; % COW
	2	 0.0	 0.0	 3	   0.000000	  29.804930	   0.000000; % COW
...